Spectre (R) Circuit Simulator
Version 19.1.0.396.isr8 64bit -- 19 Jun 2020
Simulating `input.scs' on edatools-server2 at 6:36:39 PM, Fri Oct 20, 2023 (process id: 94180).
H = mpsImport( "spectre" "ipi" "v0.0" ?session "spectre0_65274_17" )
H->sclSetResultDir( "../psf" )
H->sclRun( "all" )
H->sclEcho( "@-@" )
