
Spectre (R) Circuit Simulator
Version 19.1.0.396.isr8 64bit -- 19 Jun 2020
Copyright (C) 1989-2020 Cadence Design Systems, Inc. All rights reserved worldwide. Cadence and Spectre are registered trademarks of Cadence Design Systems, Inc. All others are the property of their respective holders.

Includes RSA BSAFE(R) Cryptographic or Security Protocol Software from RSA Security, Inc.

User: ananya22131   Host: edatools-server2   HostID: 7F0100   PID: 28250
Memory  available: 1.8094 GB  physical: 134.6428 GB
Linux   : Red Hat Enterprise Linux Server release 7.9 (Maipo)
CPU Type: Intel(R) Xeon(R) Gold 6226R CPU @ 2.90GHz
        Socket: Processors [Frequency] (Hyperthreaded Processor)
        0:       0 [3579.0] ( 32 ),  1 [3599.9] ( 33 ),  2 [3599.9] ( 34 )
                 3 [3599.9] ( 35 ),  4 [3599.9] ( 36 ),  5 [3599.9] ( 37 )
                 6 [3599.9] ( 38 ),  7 [3600.0] ( 39 ),  8 [3600.0] ( 40 )
                 9 [3522.3] ( 41 ), 10 [3476.8] ( 42 ), 11 [3599.9] ( 43 )
                12 [3599.9] ( 44 ), 13 [3600.0] ( 45 ), 14 [3589.1] ( 46 )
                15 [3520.4] ( 47 )
        1:      16 [3299.5] ( 48 ), 17 [3622.7] ( 49 ), 18 [3601.1] ( 50 )
                19 [3599.9] ( 51 ), 20 [3599.7] ( 52 ), 21 [3615.3] ( 53 )
                22 [3600.2] ( 54 ), 23 [3307.5] ( 55 ), 24 [3414.0] ( 56 )
                25 [3549.1] ( 57 ), 26 [3571.9] ( 58 ), 27 [3535.6] ( 59 )
                28 [3333.8] ( 60 ), 29 [3328.0] ( 61 ), 30 [3554.2] ( 62 )
                31 [3583.9] ( 63 )
        
System load averages (1min, 5min, 15min) : 4.4 %, 4.3 %, 4.8 %
Hyperthreading is enabled
HPC is enabled


Simulating `input.scs' on edatools-server2 at 1:56:25 AM, Thur Oct 26, 2023 (process id: 28250).
Current working directory: /home/ananya22131/Pooja_mam_project2/AND2X2/simulation/AND2X2/spectre/schematic/netlist
Command line:
    /cadence/SPECTRE191/tools/bin/spectre -64 input.scs +escchars +log  \
        ../psf/spectre.out +inter=mpsc +mpssession=spectre0_134107_13  \
        -format psfxl -raw ../psf +aps +lqtimeout 900 -maxw 5 -maxn 5  \
        -env ade
spectre pid = 28250

Loading /cadence/SPECTRE191/tools.lnx86/cmi/lib/64bit/5.0/libinfineon_sh.so ...
Loading /cadence/SPECTRE191/tools.lnx86/cmi/lib/64bit/5.0/libphilips_o_sh.so ...
Loading /cadence/SPECTRE191/tools.lnx86/cmi/lib/64bit/5.0/libphilips_sh.so ...
Loading /cadence/SPECTRE191/tools.lnx86/cmi/lib/64bit/5.0/libsparam_sh.so ...
Loading /cadence/SPECTRE191/tools.lnx86/cmi/lib/64bit/5.0/libstmodels_sh.so ...
Reading file:  /home/ananya22131/Pooja_mam_project2/AND2X2/simulation/AND2X2/spectre/schematic/netlist/input.scs
Reading file:  /cadence/SPECTRE191/tools.lnx86/spectre/etc/configs/spectre.cfg
Reading file:  /cadence/FOUNDRY/analog/45nm/models/spectre/gpdk045.scs
Reading file:  /cadence/FOUNDRY/analog/45nm/models/spectre/gpdk045_mos.scs
Reading file:  /cadence/FOUNDRY/analog/45nm/models/spectre/gpdk045_diode.scs
Reading file:  /cadence/FOUNDRY/analog/45nm/models/spectre/gpdk045_bipolar.scs
Reading file:  /cadence/FOUNDRY/analog/45nm/models/spectre/gpdk045_mimcap.scs
Reading file:  /cadence/FOUNDRY/analog/45nm/models/spectre/gpdk045_moscap.scs
Reading file:  /cadence/FOUNDRY/analog/45nm/models/spectre/gpdk045_resistor.scs
Reading file:  /cadence/FOUNDRY/analog/45nm/models/spectre/gpdk045_inductor.scs
Reading file:  /cadence/FOUNDRY/analog/45nm/models/spectre/gpdk045_soa.scs
Reading file:  /home/ananya22131/Pooja_mam_project2/AND2X2/simulation/AND2X2/spectre/schematic/netlist/_graphical_stimuli_1.scs
Time for NDB Parsing: CPU = 371.905 ms, elapsed = 1.33008 s.
Time accumulated: CPU = 473.806 ms, elapsed = 1.33008 s.
Peak resident memory used = 72.3 Mbytes.

Reading link:  /cadence/SPECTRE191/tools.lnx86/spectre/etc/ahdl/discipline.h
Reading file:  /cadence/SPECTRE191/tools.lnx86/spectre/etc/ahdl/disciplines.vams
Reading link:  /cadence/SPECTRE191/tools.lnx86/spectre/etc/ahdl/constants.h
Reading file:  /cadence/SPECTRE191/tools.lnx86/spectre/etc/ahdl/constants.vams
Existing shared object for module bsource_2b273e is up to date.
Installed compiled interface for bsource_2b273e.
Time for Elaboration: CPU = 24.854 ms, elapsed = 24.8551 ms.
Time accumulated: CPU = 498.775 ms, elapsed = 1.35505 s.
Peak resident memory used = 81.9 Mbytes.


Warning from spectre during hierarchy flattening.
    WARNING (SPECTRE-17101): The value 'psf' specified for the 'checklimitdest' option will no longer be supported in future releases. Use 'spectre -h' to see other recommended values for the 'checklimitdest' option.


Time for EDB Visiting: CPU = 1.188 ms, elapsed = 1.18995 ms.
Time accumulated: CPU = 500.071 ms, elapsed = 1.35635 s.
Peak resident memory used = 82.9 Mbytes.


Notice from spectre during initial setup.
    Multithreading is disabled due to the size of the design being too small.


Global user options:
         psfversion = 1.4.0
            vabstol = 1e-06
            iabstol = 1e-12
               temp = 25
               gmin = 1e-12
             rforce = 1
           maxnotes = 5
           maxwarns = 5
             digits = 5
               cols = 80
             pivrel = 0.001
           sensfile = ../psf/sens.output
     checklimitdest = psf
               save = allpub
           currents = all
             reltol = 0.001
               tnom = 27
             scalem = 1
              scale = 1

Scoped user options:

Circuit inventory:
              nodes 13
              bsim4 6     
     bsource_2b273e 6     
          capacitor 1     
            vsource 4     

Analysis and control statement inventory:
               info 7     
               tran 1     

Output statements:
             .probe 0     
           .measure 0     
               save 0     


Notice from spectre during initial setup.
    1 vsources are short because their absolute value is less than or equal to 'vabsshort'.
    APS Enabled.

Time for parsing: CPU = 2.611 ms, elapsed = 3.50285 ms.
Time accumulated: CPU = 502.762 ms, elapsed = 1.35993 s.
Peak resident memory used = 84.5 Mbytes.

~~~~~~~~~~~~~~~~~~~~~~
Pre-Simulation Summary
~~~~~~~~~~~~~~~~~~~~~~
~~~~~~~~~~~~~~~~~~~~~~
Entering remote command mode using MPSC service (spectre, ipi, v0.0, spectre0_134107_13, ).

************************************************
Transient Analysis `tran': time = (0 s -> 11 ns)
************************************************
Trying `homotopy = gmin' for initial conditions.

Notice from spectre during IC analysis, during transient analysis `tran'.
    GminDC = 1 pS is large enough to noticeably affect the DC solution.
        dV(net23) = 55.0831 mV
        Use the `gmin_check' option to eliminate or expand this report.

DC simulation time: CPU = 4.926 ms, elapsed = 4.92692 ms.

Opening the PSFXL file ../psf/tran.tran.tran ...
Important parameter values:
    start = 0 s
    outputstart = 0 s
    stop = 11 ns
    step = 100 ps
    maxstep = 220 ps
    ic = all
    useprevic = no
    skipdc = no
    reltol = 1e-03
    abstol(V) = 1 uV
    abstol(I) = 1 pA
    temp = 25 C
    tnom = 27 C
    tempeffects = all
    errpreset = moderate
    method = traponly
    lteratio = 3.5
    relref = sigglobal
    cmin = 0 F
    gmin = 1 pS
    rabsshort = 1 mOhm


Notice from spectre during transient analysis `tran'.
    Multithreading is disabled due to the size of the design being too small.


Output and IC/nodeset summary:
                 save   40      (current)
                 save   12      (voltage)

    tran: time = 300 ps      (2.73 %), step = 200 ps       (1.82 %)
    tran: time = 870 ps      (7.91 %), step = 130 ps       (1.18 %)
    tran: time = 1.381 ns    (12.6 %), step = 34.01 ps     (309 m%)
    tran: time = 2.115 ns    (19.2 %), step = 220 ps          (2 %)
    tran: time = 2.555 ns    (23.2 %), step = 220 ps          (2 %)
    tran: time = 3.215 ns    (29.2 %), step = 220 ps          (2 %)
    tran: time = 3.655 ns    (33.2 %), step = 220 ps          (2 %)
    tran: time = 4.315 ns    (39.2 %), step = 220 ps          (2 %)
    tran: time = 4.755 ns    (43.2 %), step = 220 ps          (2 %)
    tran: time = 5.415 ns    (49.2 %), step = 220 ps          (2 %)

Notice from spectre at time = 5.8547 ns during transient analysis `tran'.
    Found trapezoidal ringing on node net23.

    tran: time = 5.855 ns    (53.2 %), step = 220 ps          (2 %)

Notice from spectre at time = 6.0747 ns during transient analysis `tran'.
    Found trapezoidal ringing on node net23.
Notice from spectre at time = 6.27 ns during transient analysis `tran'.
    Found trapezoidal ringing on node net23.

    tran: time = 6.327 ns    (57.5 %), step = 26.26 ps     (239 m%)

Notice from spectre at time = 6.54215 ns during transient analysis `tran'.
    Found trapezoidal ringing on node PM0.n1.

    tran: time = 6.89 ns     (62.6 %), step = 22.47 ps     (204 m%)
    tran: time = 7.642 ns    (69.5 %), step = 220 ps          (2 %)
    tran: time = 8.082 ns    (73.5 %), step = 220 ps          (2 %)
    tran: time = 8.742 ns    (79.5 %), step = 220 ps          (2 %)
    tran: time = 9.182 ns    (83.5 %), step = 220 ps          (2 %)
    tran: time = 9.842 ns    (89.5 %), step = 220 ps          (2 %)
    tran: time = 10.28 ns    (93.5 %), step = 220 ps          (2 %)
    tran: time = 10.86 ns    (98.7 %), step = 139 ps       (1.26 %)
Number of accepted tran steps =             157

Notice from spectre during transient analysis `tran'.
    Trapezoidal ringing is detected during tran analysis.
        Please use method=trap for better results and performance.


Maximum value achieved for any signal of each quantity: 
V: V(net24) = 1.006 V
I: I(_vVDD:p) = 195.9 uA
If your circuit contains signals of the same quantity that are vastly different in size (such as high voltage circuitry combined with low voltage control circuitry), you should consider specifying global option `bin_relref=yes'.

~~~~~~~~~~~~~~~~~~~~~~~~~~~~~~~~~
Post-Transient Simulation Summary
~~~~~~~~~~~~~~~~~~~~~~~~~~~~~~~~~
   -   To further speed up simulation, consider
          add ++aps on command line
~~~~~~~~~~~~~~~~~~~~~~~~~~~~~~~~~


During simulation, the CPU load for active processors is :
         0 (3.5 %)       1 (2.8 %)       2 (13.7 %)      3 (8.1 %)
         4 (9.8 %)       5 (5.7 %)       6 (3.4 %)       7 (5.7 %)
         8 (3.4 %)       9 (2.3 %)      10 (4.0 %)      11 (8.5 %)
        12 (4.5 %)      13 (3.4 %)      14 (4.0 %)      15 (5.1 %)
        16 (1.7 %)      17 (1.7 %)      18 (7.5 %)      19 (12.6 %)
        20 (32.4 %)     21 (6.9 %)      22 (7.4 %)      23 (1.1 %)
        24 (6.9 %)      25 (1.7 %)      26 (1.1 %)      27 (1.7 %)
        28 (30.5 %)     29 (1.1 %)      30 (4.0 %)      31 (2.3 %)
        32 (1.7 %)      33 (27.3 %)     34 (20.9 %)     35 (15.4 %)
        36 (13.8 %)     37 (5.8 %)      38 (5.1 %)      39 (4.6 %)
        40 (1.7 %)      41 (1.7 %)      42 (4.0 %)      43 (2.8 %)
        44 (1.7 %)      45 (5.1 %)      46 (22.9 %)     47 (1.7 %)
        49 (43.3 %)     50 (14.4 %)     51 (5.8 %)      52 (5.7 %)
        53 (8.6 %)      54 (3.4 %)      55 (8.0 %)      57 (1.1 %)
        58 (2.3 %)      
        Total: 439.0%
Initial condition solution time: CPU = 4.985 ms, elapsed = 4.98796 ms.
Intrinsic tran analysis time:    CPU = 19.815 ms, elapsed = 15.2402 ms.
Total time required for tran analysis `tran': CPU = 27.704 ms, elapsed = 23.1321 ms.
Time accumulated: CPU = 537.331 ms, elapsed = 2.01207 s.
Peak resident memory used = 88.6 Mbytes.

finalTimeOP: writing operating point information to rawfile.

Opening the PSF file ../psf/finalTimeOP.info ...
modelParameter: writing model parameter values to rawfile.

Opening the PSF file ../psf/modelParameter.info ...
element: writing instance parameter values to rawfile.

Opening the PSF file ../psf/element.info ...
outputParameter: writing output parameter values to rawfile.

Opening the PSF file ../psf/outputParameter.info ...
designParamVals: writing netlist parameters to rawfile.

Opening the PSFASCII file ../psf/designParamVals.info ...
primitives: writing primitives to rawfile.

Opening the PSFASCII file ../psf/primitives.info.primitives ...
subckts: writing subcircuits to rawfile.

Opening the PSFASCII file ../psf/subckts.info.subckts ...

Spectre received SIGTERM sent from PID: 28081 with UID: 1140.
Process hierarchy of PID 28081 :
    PID        COMMAND
    28081      /cadence/IC618/tools/bin/64bit/cdsServIpc -c 53749 -n 26 -r 0 -x cd /home/ananya22131/Pooja_mam_project2/AND2X2/simulation/AND2X2/spectre/schematic/netlist ; ./runSimulation 
    134107     /cadence/IC618/tools.lnx86/dfII/bin/64bit/virtuoso -ocean 
    134098     csh -c source /cadence/cshrc; ocean 
    103720     python data_gen_skew_opt.py 
    103605     bash 
    142933     /usr/libexec/gnome-terminal-server 

Error found by spectre.
    ERROR (SPECTRE-25): The simulation is stopped either by the user or the farm.


Aggregate audit (1:56:37 AM, Thur Oct 26, 2023):
Time used: CPU = 551 ms, elapsed = 11.9 s, util. = 4.62%.
Time spent in licensing: elapsed = 728 ms, percentage of total = 6.1%.
Peak memory used = 89.7 Mbytes.
Simulation started at: 1:56:25 AM, Thur Oct 26, 2023, ended at: 1:56:37 AM, Thur Oct 26, 2023, with elapsed time (wall clock): 11.9 s.
spectre completes with 1 error, 1 warning, and 11 notices.
spectre terminated prematurely due to fatal error.
