Spectre (R) Circuit Simulator
Version 19.1.0.396.isr8 64bit -- 19 Jun 2020
Simulating `input.scs' on edatools-server2 at 11:17:37 AM, Wed Nov 1, 2023 (process id: 176414).
H = mpsImport( "spectre" "ipi" "v0.0" ?session "spectre0_157189_201" )
H->sclSetResultDir( "../psf" )
H->sclRun( "all" )
H->sclEcho( "@-@" )
