Spectre (R) Circuit Simulator
Version 19.1.0.396.isr8 64bit -- 19 Jun 2020
Simulating `input.scs' on edatools-server2 at 3:27:48 PM, Tue Nov 7, 2023 (process id: 27401).
H = mpsImport( "spectre" "ipi" "v0.0" ?session "spectre0_10799_3" )
H->sclSetResultDir( "../psf" )
H->sclRun( "all" )
H->sclEcho( "@-@" )
