
Spectre (R) Circuit Simulator
Version 19.1.0.396.isr8 64bit -- 19 Jun 2020
Copyright (C) 1989-2020 Cadence Design Systems, Inc. All rights reserved worldwide. Cadence and Spectre are registered trademarks of Cadence Design Systems, Inc. All others are the property of their respective holders.

Includes RSA BSAFE(R) Cryptographic or Security Protocol Software from RSA Security, Inc.

User: ananya22131   Host: edatools-server2   HostID: 7F0100   PID: 140102
Memory  available: 910.3401 MB  physical: 134.6428 GB
Linux   : Red Hat Enterprise Linux Server release 7.9 (Maipo)
CPU Type: Intel(R) Xeon(R) Gold 6226R CPU @ 2.90GHz
        Socket: Processors [Frequency] (Hyperthreaded Processor)
        0:       0 [3599.9] ( 32 ),  1 [3599.7] ( 33 ),  2 [3599.9] ( 34 )
                 3 [3599.9] ( 35 ),  4 [3599.9] ( 36 ),  5 [3599.9] ( 37 )
                 6 [3599.9] ( 38 ),  7 [3575.6] ( 39 ),  8 [3314.2] ( 40 )
                 9 [3315.6] ( 41 ), 10 [3600.0] ( 42 ), 11 [3596.1] ( 43 )
                12 [3599.9] ( 44 ), 13 [3538.8] ( 45 ), 14 [3590.5] ( 46 )
                15 [3520.0] ( 47 )
        1:      16 [3599.9] ( 48 ), 17 [3529.9] ( 49 ), 18 [3599.5] ( 50 )
                19 [3599.9] ( 51 ), 20 [3599.9] ( 52 ), 21 [3600.0] ( 53 )
                22 [3599.9] ( 54 ), 23 [3599.3] ( 55 ), 24 [3559.7] ( 56 )
                25 [3542.0] ( 57 ), 26 [3599.9] ( 58 ), 27 [3599.9] ( 59 )
                28 [3548.4] ( 60 ), 29 [3543.0] ( 61 ), 30 [3383.0] ( 62 )
                31 [3554.9] ( 63 )
        
System load averages (1min, 5min, 15min) : 4.3 %, 4.8 %, 4.7 %
Hyperthreading is enabled
HPC is enabled


Simulating `input.scs' on edatools-server2 at 3:07:35 PM, Thur Oct 26, 2023 (process id: 140102).
Current working directory: /home/ananya22131/Pooja_mam_project2/NOR2X2/simulation/NOR2X2/spectre/schematic/netlist
Command line:
    /cadence/SPECTRE191/tools/bin/spectre -64 input.scs +escchars +log  \
        ../psf/spectre.out +inter=mpsc +mpssession=spectre0_105923_83  \
        -format psfxl -raw ../psf +aps +lqtimeout 900 -maxw 5 -maxn 5  \
        -env ade
spectre pid = 140102

Loading /cadence/SPECTRE191/tools.lnx86/cmi/lib/64bit/5.0/libinfineon_sh.so ...
Loading /cadence/SPECTRE191/tools.lnx86/cmi/lib/64bit/5.0/libphilips_o_sh.so ...
Loading /cadence/SPECTRE191/tools.lnx86/cmi/lib/64bit/5.0/libphilips_sh.so ...
Loading /cadence/SPECTRE191/tools.lnx86/cmi/lib/64bit/5.0/libsparam_sh.so ...
Loading /cadence/SPECTRE191/tools.lnx86/cmi/lib/64bit/5.0/libstmodels_sh.so ...
Reading file:  /home/ananya22131/Pooja_mam_project2/NOR2X2/simulation/NOR2X2/spectre/schematic/netlist/input.scs
Reading file:  /cadence/SPECTRE191/tools.lnx86/spectre/etc/configs/spectre.cfg
Reading file:  /cadence/FOUNDRY/analog/45nm/models/spectre/gpdk045.scs
Reading file:  /cadence/FOUNDRY/analog/45nm/models/spectre/gpdk045_mos.scs
Reading file:  /cadence/FOUNDRY/analog/45nm/models/spectre/gpdk045_diode.scs
Reading file:  /cadence/FOUNDRY/analog/45nm/models/spectre/gpdk045_bipolar.scs
Reading file:  /cadence/FOUNDRY/analog/45nm/models/spectre/gpdk045_mimcap.scs
Reading file:  /cadence/FOUNDRY/analog/45nm/models/spectre/gpdk045_moscap.scs
Reading file:  /cadence/FOUNDRY/analog/45nm/models/spectre/gpdk045_resistor.scs
Reading file:  /cadence/FOUNDRY/analog/45nm/models/spectre/gpdk045_inductor.scs
Reading file:  /cadence/FOUNDRY/analog/45nm/models/spectre/gpdk045_soa.scs
Reading file:  /home/ananya22131/Pooja_mam_project2/NOR2X2/simulation/NOR2X2/spectre/schematic/netlist/_graphical_stimuli_1.scs
Time for NDB Parsing: CPU = 364.61 ms, elapsed = 1.22206 s.
Time accumulated: CPU = 456.094 ms, elapsed = 1.22207 s.
Peak resident memory used = 72.3 Mbytes.

Reading link:  /cadence/SPECTRE191/tools.lnx86/spectre/etc/ahdl/discipline.h
Reading file:  /cadence/SPECTRE191/tools.lnx86/spectre/etc/ahdl/disciplines.vams
Reading link:  /cadence/SPECTRE191/tools.lnx86/spectre/etc/ahdl/constants.h
Reading file:  /cadence/SPECTRE191/tools.lnx86/spectre/etc/ahdl/constants.vams
Existing shared object for module bsource_2b273e is up to date.
Installed compiled interface for bsource_2b273e.
Time for Elaboration: CPU = 24.291 ms, elapsed = 24.2929 ms.
Time accumulated: CPU = 480.488 ms, elapsed = 1.24646 s.
Peak resident memory used = 81.9 Mbytes.


Warning from spectre during hierarchy flattening.
    WARNING (SPECTRE-17101): The value 'psf' specified for the 'checklimitdest' option will no longer be supported in future releases. Use 'spectre -h' to see other recommended values for the 'checklimitdest' option.


Time for EDB Visiting: CPU = 1.076 ms, elapsed = 1.07598 ms.
Time accumulated: CPU = 481.663 ms, elapsed = 1.24763 s.
Peak resident memory used = 82.9 Mbytes.


Notice from spectre during initial setup.
    Multithreading is disabled due to the size of the design being too small.


Global user options:
         psfversion = 1.4.0
            vabstol = 1e-06
            iabstol = 1e-12
               temp = 25
               gmin = 1e-12
             rforce = 1
           maxnotes = 5
           maxwarns = 5
             digits = 5
               cols = 80
             pivrel = 0.001
           sensfile = ../psf/sens.output
     checklimitdest = psf
               save = allpub
           currents = all
             reltol = 0.001
               tnom = 27
             scalem = 1
              scale = 1

Scoped user options:

Circuit inventory:
              nodes 10
              bsim4 4     
     bsource_2b273e 4     
          capacitor 1     
            vsource 4     

Analysis and control statement inventory:
               info 7     
               tran 1     

Output statements:
             .probe 0     
           .measure 0     
               save 0     


Notice from spectre during initial setup.
    1 vsources are short because their absolute value is less than or equal to 'vabsshort'.
    APS Enabled.

Time for parsing: CPU = 2.902 ms, elapsed = 3.60513 ms.
Time accumulated: CPU = 484.66 ms, elapsed = 1.25133 s.
Peak resident memory used = 84.4 Mbytes.

~~~~~~~~~~~~~~~~~~~~~~
Pre-Simulation Summary
~~~~~~~~~~~~~~~~~~~~~~
~~~~~~~~~~~~~~~~~~~~~~
Entering remote command mode using MPSC service (spectre, ipi, v0.0, spectre0_105923_83, ).

************************************************
Transient Analysis `tran': time = (0 s -> 11 ns)
************************************************
DC simulation time: CPU = 518 us, elapsed = 519.037 us.

Opening the PSFXL file ../psf/tran.tran.tran ...
Important parameter values:
    start = 0 s
    outputstart = 0 s
    stop = 11 ns
    step = 100 ps
    maxstep = 220 ps
    ic = all
    useprevic = no
    skipdc = no
    reltol = 1e-03
    abstol(V) = 1 uV
    abstol(I) = 1 pA
    temp = 25 C
    tnom = 27 C
    tempeffects = all
    errpreset = moderate
    method = traponly
    lteratio = 3.5
    relref = sigglobal
    cmin = 0 F
    gmin = 1 pS
    rabsshort = 1 mOhm


Notice from spectre during transient analysis `tran'.
    Multithreading is disabled due to the size of the design being too small.


Output and IC/nodeset summary:
                 save   28      (current)
                 save   9       (voltage)

    tran: time = 300 ps      (2.73 %), step = 200 ps       (1.82 %)
    tran: time = 870 ps      (7.91 %), step = 130 ps       (1.18 %)
    tran: time = 1.406 ns    (12.8 %), step = 64.09 ps     (583 m%)

Notice from spectre at time = 1.53438 ns during transient analysis `tran'.
    Found trapezoidal ringing on node _vA:p.

    tran: time = 1.927 ns    (17.5 %), step = 172.8 ps     (1.57 %)
    tran: time = 2.527 ns      (23 %), step = 75.87 ps     (690 m%)
    tran: time = 3.031 ns    (27.6 %), step = 165.9 ps     (1.51 %)
    tran: time = 3.777 ns    (34.3 %), step = 220 ps          (2 %)

Notice from spectre at time = 4.21746 ns during transient analysis `tran'.
    Found trapezoidal ringing on node _vB:p.

    tran: time = 4.217 ns    (38.3 %), step = 220 ps          (2 %)

Notice from spectre at time = 4.43746 ns during transient analysis `tran'.
    Found trapezoidal ringing on node _vB:p.
Notice from spectre at time = 4.65746 ns during transient analysis `tran'.
    Found trapezoidal ringing on node _vB:p.
Notice from spectre at time = 4.87746 ns during transient analysis `tran'.
    Found trapezoidal ringing on node _vB:p.
        Further occurrences of this notice will be suppressed.

    tran: time = 4.877 ns    (44.3 %), step = 220 ps          (2 %)
    tran: time = 5.317 ns    (48.3 %), step = 220 ps          (2 %)
    tran: time = 5.977 ns    (54.3 %), step = 220 ps          (2 %)
    tran: time = 6.333 ns    (57.6 %), step = 32.44 ps     (295 m%)
    tran: time = 7.021 ns    (63.8 %), step = 220 ps          (2 %)
    tran: time = 7.468 ns    (67.9 %), step = 43.85 ps     (399 m%)
    tran: time = 8.133 ns    (73.9 %), step = 220 ps          (2 %)
    tran: time = 8.573 ns    (77.9 %), step = 220 ps          (2 %)
    tran: time = 9.233 ns    (83.9 %), step = 220 ps          (2 %)
    tran: time = 9.673 ns    (87.9 %), step = 220 ps          (2 %)
    tran: time = 10.33 ns    (93.9 %), step = 220 ps          (2 %)
    tran: time = 10.77 ns    (97.9 %), step = 220 ps          (2 %)
Number of accepted tran steps =             130

Notice from spectre during transient analysis `tran'.
    Trapezoidal ringing is detected during tran analysis.
        Please use method=trap for better results and performance.


Maximum value achieved for any signal of each quantity: 
V: V(net20) = 1.001 V
I: I(_vVDD:p) = 94.61 uA
If your circuit contains signals of the same quantity that are vastly different in size (such as high voltage circuitry combined with low voltage control circuitry), you should consider specifying global option `bin_relref=yes'.

~~~~~~~~~~~~~~~~~~~~~~~~~~~~~~~~~
Post-Transient Simulation Summary
~~~~~~~~~~~~~~~~~~~~~~~~~~~~~~~~~
   -   To further speed up simulation, consider
          add ++aps on command line
~~~~~~~~~~~~~~~~~~~~~~~~~~~~~~~~~


During simulation, the CPU load for active processors is :
         0 (3.3 %)       1 (2.2 %)       2 (4.4 %)       3 (4.4 %)
         4 (2.8 %)       5 (1.6 %)       6 (2.2 %)       7 (1.6 %)
         8 (22.5 %)      9 (3.8 %)      10 (2.7 %)      11 (1.7 %)
        12 (1.1 %)      13 (1.1 %)      14 (1.6 %)      15 (1.7 %)
        16 (8.8 %)      17 (4.9 %)      18 (7.7 %)      19 (15.3 %)
        20 (5.5 %)      21 (4.4 %)      22 (2.7 %)      23 (2.7 %)
        24 (3.3 %)      25 (2.2 %)      26 (3.3 %)      27 (2.7 %)
        28 (2.2 %)      29 (2.2 %)      30 (1.6 %)      31 (4.9 %)
        33 (9.4 %)      34 (3.3 %)      35 (1.6 %)      36 (1.1 %)
        37 (28.0 %)     38 (3.8 %)      39 (2.7 %)      42 (1.1 %)
        43 (1.1 %)      48 (17.1 %)     49 (12.6 %)     50 (3.3 %)
        51 (2.2 %)      52 (1.6 %)      53 (2.2 %)      54 (1.6 %)
        56 (3.9 %)      57 (1.1 %)      58 (1.1 %)      61 (2.2 %)
        62 (1.1 %)      
        Total: 238.6%
Initial condition solution time: CPU = 571 us, elapsed = 571.012 us.
Intrinsic tran analysis time:    CPU = 16.171 ms, elapsed = 11.0991 ms.
Total time required for tran analysis `tran': CPU = 18.715 ms, elapsed = 13.638 ms.
Time accumulated: CPU = 509.891 ms, elapsed = 2.01504 s.
Peak resident memory used = 88.4 Mbytes.


Notice from spectre.
    15 notices suppressed.

finalTimeOP: writing operating point information to rawfile.

Opening the PSF file ../psf/finalTimeOP.info ...
modelParameter: writing model parameter values to rawfile.

Opening the PSF file ../psf/modelParameter.info ...
element: writing instance parameter values to rawfile.

Opening the PSF file ../psf/element.info ...
outputParameter: writing output parameter values to rawfile.

Opening the PSF file ../psf/outputParameter.info ...
designParamVals: writing netlist parameters to rawfile.

Opening the PSFASCII file ../psf/designParamVals.info ...
primitives: writing primitives to rawfile.

Opening the PSFASCII file ../psf/primitives.info.primitives ...
subckts: writing subcircuits to rawfile.

Opening the PSFASCII file ../psf/subckts.info.subckts ...

Spectre received SIGTERM sent from PID: 140026 with UID: 1140.
Process hierarchy of PID 140026 :
    PID        COMMAND
    140026     /cadence/IC618/tools/bin/64bit/cdsServIpc -c 60638 -n 96 -r 0 -x cd /home/ananya22131/Pooja_mam_project2/NOR2X2/simulation/NOR2X2/spectre/schematic/netlist ; ./runSimulation 
    105923     /cadence/IC618/tools.lnx86/dfII/bin/64bit/virtuoso -ocean 
    105906     csh -c source /cadence/cshrc; ocean 
    157926     python data_gen_skew_opt.py 
    157869     bash 
    142933     /usr/libexec/gnome-terminal-server 

Error found by spectre.
    ERROR (SPECTRE-25): The simulation is stopped either by the user or the farm.


Aggregate audit (3:07:47 PM, Thur Oct 26, 2023):
Time used: CPU = 525 ms, elapsed = 12.1 s, util. = 4.34%.
Time spent in licensing: elapsed = 685 ms, percentage of total = 5.66%.
Peak memory used = 89.6 Mbytes.
Simulation started at: 3:07:35 PM, Thur Oct 26, 2023, ended at: 3:07:47 PM, Thur Oct 26, 2023, with elapsed time (wall clock): 12.1 s.
spectre completes with 1 error, 1 warning, and 12 notices.
spectre terminated prematurely due to fatal error.
