Spectre (R) Circuit Simulator
Version 19.1.0.396.isr8 64bit -- 19 Jun 2020
Simulating `input.scs' on edatools-server2 at 2:07:58 PM, Thur Oct 26, 2023 (process id: 66451).
H = mpsImport( "spectre" "ipi" "v0.0" ?session "spectre0_120013_32" )
H->sclSetResultDir( "../psf" )
H->sclRun( "all" )
H->sclEcho( "@-@" )
