Spectre (R) Circuit Simulator
Version 19.1.0.396.isr8 64bit -- 19 Jun 2020
Simulating `input.scs' on edatools-server2 at 2:24:53 PM, Thur Oct 19, 2023 (process id: 130830).
H = mpsImport( "spectre" "ipi" "v0.0" ?session "spectre0_119288_224" )
H->sclSetResultDir( "../psf" )
H->sclRun( "all" )
H->sclEcho( "@-@" )
