
Spectre (R) Circuit Simulator
Version 19.1.0.396.isr8 64bit -- 19 Jun 2020
Copyright (C) 1989-2020 Cadence Design Systems, Inc. All rights reserved worldwide. Cadence and Spectre are registered trademarks of Cadence Design Systems, Inc. All others are the property of their respective holders.

Includes RSA BSAFE(R) Cryptographic or Security Protocol Software from RSA Security, Inc.

User: poojabe   Host: edatools-server2   HostID: 7F0100   PID: 27401
Memory  available: 1.5929 GB  physical: 134.6428 GB
Linux   : Red Hat Enterprise Linux Server release 7.9 (Maipo)
CPU Type: Intel(R) Xeon(R) Gold 6226R CPU @ 2.90GHz
        Socket: Processors [Frequency] (Hyperthreaded Processor)
        0:       0 [3578.1] ( 32 ),  1 [3599.9] ( 33 ),  2 [3599.9] ( 34 )
                 3 [3599.9] ( 35 ),  4 [3524.5] ( 36 ),  5 [3509.8] ( 37 )
                 6 [3529.2] ( 38 ),  7 [3469.2] ( 39 ),  8 [3599.9] ( 40 )
                 9 [3536.3] ( 41 ), 10 [3549.4] ( 42 ), 11 [3599.5] ( 43 )
                12 [3480.6] ( 44 ), 13 [3436.3] ( 45 ), 14 [3600.2] ( 46 )
                15 [3501.3] ( 47 )
        1:      16 [3480.2] ( 48 ), 17 [3600.2] ( 49 ), 18 [3599.9] ( 50 )
                19 [3599.9] ( 51 ), 20 [3600.0] ( 52 ), 21 [3599.9] ( 53 )
                22 [3599.9] ( 54 ), 23 [3300.0] ( 55 ), 24 [3600.0] ( 56 )
                25 [3537.0] ( 57 ), 26 [3329.8] ( 58 ), 27 [3471.0] ( 59 )
                28 [3481.3] ( 60 ), 29 [3454.9] ( 61 ), 30 [3480.6] ( 62 )
                31 [3529.8] ( 63 )
        
System load averages (1min, 5min, 15min) : 4.7 %, 6.2 %, 15.5 %
Hyperthreading is enabled
HPC is enabled


Simulating `input.scs' on edatools-server2 at 3:27:48 PM, Tue Nov 7, 2023 (process id: 27401).
Current working directory: /home/poojabe/Desktop/PhD_Research/src_project/ml_lib_char/mlLibGen/gates/NOR2X1/simulation/schematic/netlist
Command line:
    /cadence/SPECTRE191/tools/bin/spectre -64 input.scs +escchars +log  \
        ../psf/spectre.out +inter=mpsc +mpssession=spectre0_10799_3  \
        -format psfxl -raw ../psf +aps +lqtimeout 900 -maxw 5 -maxn 5  \
        -env ade
spectre pid = 27401

Loading /cadence/SPECTRE191/tools.lnx86/cmi/lib/64bit/5.0/libinfineon_sh.so ...
Loading /cadence/SPECTRE191/tools.lnx86/cmi/lib/64bit/5.0/libphilips_o_sh.so ...
Loading /cadence/SPECTRE191/tools.lnx86/cmi/lib/64bit/5.0/libphilips_sh.so ...
Loading /cadence/SPECTRE191/tools.lnx86/cmi/lib/64bit/5.0/libsparam_sh.so ...
Loading /cadence/SPECTRE191/tools.lnx86/cmi/lib/64bit/5.0/libstmodels_sh.so ...
Reading file:  /home/poojabe/Desktop/PhD_Research/src_project/ml_lib_char/mlLibGen/gates/NOR2X1/simulation/schematic/netlist/input.scs
Reading file:  /cadence/SPECTRE191/tools.lnx86/spectre/etc/configs/spectre.cfg
Reading file:  /cadence/FOUNDRY/analog/45nm/models/spectre/gpdk045.scs
Reading file:  /cadence/FOUNDRY/analog/45nm/models/spectre/gpdk045_mos.scs
Reading file:  /cadence/FOUNDRY/analog/45nm/models/spectre/gpdk045_diode.scs
Reading file:  /cadence/FOUNDRY/analog/45nm/models/spectre/gpdk045_bipolar.scs
Reading file:  /cadence/FOUNDRY/analog/45nm/models/spectre/gpdk045_mimcap.scs
Reading file:  /cadence/FOUNDRY/analog/45nm/models/spectre/gpdk045_moscap.scs
Reading file:  /cadence/FOUNDRY/analog/45nm/models/spectre/gpdk045_resistor.scs
Reading file:  /cadence/FOUNDRY/analog/45nm/models/spectre/gpdk045_inductor.scs
Reading file:  /cadence/FOUNDRY/analog/45nm/models/spectre/gpdk045_soa.scs
Reading file:  /home/poojabe/Desktop/PhD_Research/src_project/ml_lib_char/mlLibGen/gates/NOR2X1/simulation/schematic/netlist/_graphical_stimuli_1.scs
Time for NDB Parsing: CPU = 359.868 ms, elapsed = 1.16645 s.
Time accumulated: CPU = 447.759 ms, elapsed = 1.16645 s.
Peak resident memory used = 72.2 Mbytes.

Reading link:  /cadence/SPECTRE191/tools.lnx86/spectre/etc/ahdl/discipline.h
Reading file:  /cadence/SPECTRE191/tools.lnx86/spectre/etc/ahdl/disciplines.vams
Reading link:  /cadence/SPECTRE191/tools.lnx86/spectre/etc/ahdl/constants.h
Reading file:  /cadence/SPECTRE191/tools.lnx86/spectre/etc/ahdl/constants.vams
Existing shared object for module bsource_2b273e is up to date.
Installed compiled interface for bsource_2b273e.
Time for Elaboration: CPU = 21.806 ms, elapsed = 21.8081 ms.
Time accumulated: CPU = 469.669 ms, elapsed = 1.18836 s.
Peak resident memory used = 81.8 Mbytes.


Warning from spectre during hierarchy flattening.
    WARNING (SPECTRE-17101): The value 'psf' specified for the 'checklimitdest' option will no longer be supported in future releases. Use 'spectre -h' to see other recommended values for the 'checklimitdest' option.


Time for EDB Visiting: CPU = 979 us, elapsed = 979.9 us.
Time accumulated: CPU = 470.748 ms, elapsed = 1.18944 s.
Peak resident memory used = 82.8 Mbytes.


Notice from spectre during initial setup.
    Multithreading is disabled due to the size of the design being too small.


Global user options:
         psfversion = 1.4.0
            vabstol = 1e-06
            iabstol = 1e-12
               temp = 25
               gmin = 1e-12
             rforce = 1
           maxnotes = 5
           maxwarns = 5
             digits = 5
               cols = 80
             pivrel = 0.001
           sensfile = ../psf/sens.output
     checklimitdest = psf
               save = allpub
           currents = all
             reltol = 0.001
               tnom = 27
             scalem = 1
              scale = 1

Scoped user options:

Circuit inventory:
              nodes 10
              bsim4 4     
     bsource_2b273e 4     
          capacitor 1     
            vsource 4     

Analysis and control statement inventory:
               info 7     
               tran 1     

Output statements:
             .probe 0     
           .measure 0     
               save 0     


Notice from spectre during initial setup.
    1 vsources are short because their absolute value is less than or equal to 'vabsshort'.
    APS Enabled.

Time for parsing: CPU = 2.355 ms, elapsed = 3.42989 ms.
Time accumulated: CPU = 473.185 ms, elapsed = 1.19295 s.
Peak resident memory used = 84.4 Mbytes.

~~~~~~~~~~~~~~~~~~~~~~
Pre-Simulation Summary
~~~~~~~~~~~~~~~~~~~~~~
~~~~~~~~~~~~~~~~~~~~~~
Entering remote command mode using MPSC service (spectre, ipi, v0.0, spectre0_10799_3, ).

************************************************
Transient Analysis `tran': time = (0 s -> 21 ns)
************************************************
DC simulation time: CPU = 490 us, elapsed = 489.95 us.

Opening the PSFXL file ../psf/tran.tran.tran ...
Important parameter values:
    start = 0 s
    outputstart = 0 s
    stop = 21 ns
    step = 100 ps
    maxstep = 420 ps
    ic = all
    useprevic = no
    skipdc = no
    reltol = 1e-03
    abstol(V) = 1 uV
    abstol(I) = 1 pA
    temp = 25 C
    tnom = 27 C
    tempeffects = all
    errpreset = moderate
    method = traponly
    lteratio = 3.5
    relref = sigglobal
    cmin = 0 F
    gmin = 1 pS
    rabsshort = 1 mOhm


Notice from spectre during transient analysis `tran'.
    Multithreading is disabled due to the size of the design being too small.


Output and IC/nodeset summary:
                 save   28      (current)
                 save   9       (voltage)

    tran: time = 700 ps      (3.33 %), step = 400 ps        (1.9 %)
    tran: time = 1.585 ns    (7.55 %), step = 52.73 ps     (251 m%)
    tran: time = 2.756 ns    (13.1 %), step = 143.2 ps     (682 m%)

Notice from spectre at time = 4.07201 ns during transient analysis `tran'.
    Found trapezoidal ringing on node _vB:p.

    tran: time = 4.072 ns    (19.4 %), step = 420 ps          (2 %)

Notice from spectre at time = 4.49201 ns during transient analysis `tran'.
    Found trapezoidal ringing on node _vB:p.
Notice from spectre at time = 4.91201 ns during transient analysis `tran'.
    Found trapezoidal ringing on node _vB:p.

    tran: time = 4.912 ns    (23.4 %), step = 420 ps          (2 %)

Notice from spectre at time = 5.33201 ns during transient analysis `tran'.
    Found trapezoidal ringing on node _vB:p.
Notice from spectre at time = 5.75201 ns during transient analysis `tran'.
    Found trapezoidal ringing on node _vB:p.
        Further occurrences of this notice will be suppressed.

    tran: time = 6.1 ns        (29 %), step = 348 ps       (1.66 %)
    tran: time = 7.1 ns      (33.8 %), step = 280.8 ps     (1.34 %)
    tran: time = 8.111 ns    (38.6 %), step = 420 ps          (2 %)
    tran: time = 9.148 ns    (43.6 %), step = 311 ps       (1.48 %)
    tran: time = 10.12 ns    (48.2 %), step = 335.3 ps      (1.6 %)
    tran: time = 11.03 ns    (52.5 %), step = 11.66 ps    (55.5 m%)
    tran: time = 12.1 ns     (57.6 %), step = 25.78 ps     (123 m%)
    tran: time = 13.23 ns      (63 %), step = 284.2 ps     (1.35 %)
    tran: time = 14.49 ns      (69 %), step = 420 ps          (2 %)
    tran: time = 15.33 ns      (73 %), step = 420 ps          (2 %)
    tran: time = 16.34 ns    (77.8 %), step = 67.77 ps     (323 m%)
    tran: time = 17.33 ns    (82.5 %), step = 60.67 ps     (289 m%)
    tran: time = 18.52 ns    (88.2 %), step = 408.6 ps     (1.95 %)
    tran: time = 19.47 ns    (92.7 %), step = 323.9 ps     (1.54 %)
    tran: time = 20.51 ns    (97.7 %), step = 395.2 ps     (1.88 %)
Number of accepted tran steps =             245

Notice from spectre during transient analysis `tran'.
    Trapezoidal ringing is detected during tran analysis.
        Please use method=trap for better results and performance.


Maximum value achieved for any signal of each quantity: 
V: V(net17) = 1.204 V
I: I(_vVDD:p) = 84.17 uA
If your circuit contains signals of the same quantity that are vastly different in size (such as high voltage circuitry combined with low voltage control circuitry), you should consider specifying global option `bin_relref=yes'.

~~~~~~~~~~~~~~~~~~~~~~~~~~~~~~~~~
Post-Transient Simulation Summary
~~~~~~~~~~~~~~~~~~~~~~~~~~~~~~~~~
   -   To further speed up simulation, consider
          add ++aps on command line
~~~~~~~~~~~~~~~~~~~~~~~~~~~~~~~~~


During simulation, the CPU load for active processors is :
         0 (2.8 %)       1 (3.8 %)       2 (9.3 %)       3 (3.8 %)
         4 (5.4 %)       5 (1.6 %)       6 (3.8 %)       7 (1.6 %)
         8 (100.0 %)     9 (3.8 %)      11 (3.3 %)      12 (1.6 %)
        13 (2.2 %)      14 (3.3 %)      15 (1.6 %)      16 (31.5 %)
        17 (2.2 %)      19 (1.1 %)      22 (2.7 %)      23 (8.2 %)
        24 (1.6 %)      25 (3.8 %)      26 (2.7 %)      27 (1.6 %)
        28 (2.7 %)      30 (1.6 %)      31 (5.9 %)      33 (2.7 %)
        39 (2.2 %)      42 (1.1 %)      43 (1.1 %)      45 (1.1 %)
        46 (1.6 %)      49 (2.7 %)      50 (2.2 %)      51 (2.2 %)
        52 (2.2 %)      53 (3.3 %)      54 (1.6 %)      55 (2.2 %)
        57 (1.1 %)      58 (1.1 %)      
        Total: 249.7%
Initial condition solution time: CPU = 542 us, elapsed = 543.118 us.
Intrinsic tran analysis time:    CPU = 24.204 ms, elapsed = 19.4979 ms.
Total time required for tran analysis `tran': CPU = 26.615 ms, elapsed = 21.9049 ms.
Time accumulated: CPU = 506.04 ms, elapsed = 2.02648 s.
Peak resident memory used = 88.4 Mbytes.


Notice from spectre.
    16 notices suppressed.

finalTimeOP: writing operating point information to rawfile.

Opening the PSF file ../psf/finalTimeOP.info ...
modelParameter: writing model parameter values to rawfile.

Opening the PSF file ../psf/modelParameter.info ...
element: writing instance parameter values to rawfile.

Opening the PSF file ../psf/element.info ...
outputParameter: writing output parameter values to rawfile.

Opening the PSF file ../psf/outputParameter.info ...
designParamVals: writing netlist parameters to rawfile.

Opening the PSFASCII file ../psf/designParamVals.info ...
primitives: writing primitives to rawfile.

Opening the PSFASCII file ../psf/primitives.info.primitives ...
subckts: writing subcircuits to rawfile.

Opening the PSFASCII file ../psf/subckts.info.subckts ...

Spectre received SIGTERM sent from PID: 27329 with UID: 1111.
Process hierarchy of PID 27329 :
    PID        COMMAND
    27329      /cadence/IC618/tools/bin/64bit/cdsServIpc -c 60299 -n 16 -r 0 -x cd /home/poojabe/Desktop/PhD_Research/src_project/ml_lib_char/mlLibGen/gates/NOR2X1/simulation/schematic/netlist ; ./runSimulation 
    10799      /cadence/IC618/tools.lnx86/dfII/bin/64bit/virtuoso -ocean 
    10791      csh -c source /cadence/cshrc; ocean 
    10717      /home/poojabe/miniconda3/bin/python3 /home/poojabe/Desktop/PhD_Research/src_project/ml_lib_char/mlLibGen/gates/simulation.py -gate NOR2X1,OR2X1 -optimize none -num_processes 2 
    10716      /home/poojabe/miniconda3/bin/python3 /home/poojabe/Desktop/PhD_Research/src_project/ml_lib_char/mlLibGen/gates/simulation.py -gate NOR2X1,OR2X1 -optimize none -num_processes 2 
    143758     tclsh mllibgen.tcl 
    143757     /bin/bash /home/poojabe/bin/mlLibGen 
    173787     bash 
    153853     /usr/libexec/gnome-terminal-server 

Error found by spectre.
    ERROR (SPECTRE-25): The simulation is stopped either by the user or the farm.


Aggregate audit (3:28:03 PM, Tue Nov 7, 2023):
Time used: CPU = 520 ms, elapsed = 14.3 s, util. = 3.64%.
Time spent in licensing: elapsed = 639 ms.
Peak memory used = 89.5 Mbytes.
Simulation started at: 3:27:48 PM, Tue Nov 7, 2023, ended at: 3:28:03 PM, Tue Nov 7, 2023, with elapsed time (wall clock): 14.3 s.
spectre completes with 1 error, 1 warning, and 12 notices.
spectre terminated prematurely due to fatal error.
