Spectre (R) Circuit Simulator
Version 19.1.0.396.isr8 64bit -- 19 Jun 2020
Simulating `input.scs' on edatools-server2 at 2:32:40 PM, Tue Nov 21, 2023 (process id: 97402).
H = mpsImport( "spectre" "ipi" "v0.0" ?session "spectre0_64382_39" )
H->sclSetResultDir( "../psf" )
H->sclRun( "all" )
H->sclEcho( "@-@" )
sclCkt0xc2b2a70 = H->sclGetCircuit(  "" )
H->sclQuit(  )
