
Spectre (R) Circuit Simulator
Version 19.1.0.396.isr8 64bit -- 19 Jun 2020
Copyright (C) 1989-2020 Cadence Design Systems, Inc. All rights reserved worldwide. Cadence and Spectre are registered trademarks of Cadence Design Systems, Inc. All others are the property of their respective holders.

Includes RSA BSAFE(R) Cryptographic or Security Protocol Software from RSA Security, Inc.

User: ananya22131   Host: edatools-server2   HostID: 7F0100   PID: 24258
Memory  available: 1.6592 GB  physical: 134.6428 GB
Linux   : Red Hat Enterprise Linux Server release 7.9 (Maipo)
CPU Type: Intel(R) Xeon(R) Gold 6226R CPU @ 2.90GHz
        Socket: Processors [Frequency] (Hyperthreaded Processor)
        0:       0 [3599.9] ( 32 ),  1 [3599.9] ( 33 ),  2 [3599.9] ( 34 )
                 3 [3599.9] ( 35 ),  4 [3599.9] ( 36 ),  5 [3599.9] ( 37 )
                 6 [3599.9] ( 38 ),  7 [3599.9] ( 39 ),  8 [3594.2] ( 40 )
                 9 [3599.9] ( 41 ), 10 [3577.2] ( 42 ), 11 [3600.0] ( 43 )
                12 [3600.0] ( 44 ), 13 [3599.9] ( 45 ), 14 [3581.1] ( 46 )
                15 [3570.8] ( 47 )
        1:      16 [3599.9] ( 48 ), 17 [3599.9] ( 49 ), 18 [3599.9] ( 50 )
                19 [3599.9] ( 51 ), 20 [3600.0] ( 52 ), 21 [3600.0] ( 53 )
                22 [3583.1] ( 54 ), 23 [3479.3] ( 55 ), 24 [3455.6] ( 56 )
                25 [3291.9] ( 57 ), 26 [3600.0] ( 58 ), 27 [3204.1] ( 59 )
                28 [3600.0] ( 60 ), 29 [3597.9] ( 61 ), 30 [3599.9] ( 62 )
                31 [3600.0] ( 63 )
        
System load averages (1min, 5min, 15min) : 4.3 %, 4.3 %, 4.8 %
Hyperthreading is enabled
HPC is enabled


Simulating `input.scs' on edatools-server2 at 1:56:18 AM, Thur Oct 26, 2023 (process id: 24258).
Current working directory: /home/ananya22131/Pooja_mam_project2/AND2X4/simulation/AND2X4/spectre/schematic/netlist
Command line:
    /cadence/SPECTRE191/tools/bin/spectre -64 input.scs +escchars +log  \
        ../psf/spectre.out +inter=mpsc +mpssession=spectre0_117931_21  \
        -format psfxl -raw ../psf +aps +lqtimeout 900 -maxw 5 -maxn 5  \
        -env ade
spectre pid = 24258

Loading /cadence/SPECTRE191/tools.lnx86/cmi/lib/64bit/5.0/libinfineon_sh.so ...
Loading /cadence/SPECTRE191/tools.lnx86/cmi/lib/64bit/5.0/libphilips_o_sh.so ...
Loading /cadence/SPECTRE191/tools.lnx86/cmi/lib/64bit/5.0/libphilips_sh.so ...
Loading /cadence/SPECTRE191/tools.lnx86/cmi/lib/64bit/5.0/libsparam_sh.so ...
Loading /cadence/SPECTRE191/tools.lnx86/cmi/lib/64bit/5.0/libstmodels_sh.so ...
Reading file:  /home/ananya22131/Pooja_mam_project2/AND2X4/simulation/AND2X4/spectre/schematic/netlist/input.scs
Reading file:  /cadence/SPECTRE191/tools.lnx86/spectre/etc/configs/spectre.cfg
Reading file:  /cadence/FOUNDRY/analog/45nm/models/spectre/gpdk045.scs
Reading file:  /cadence/FOUNDRY/analog/45nm/models/spectre/gpdk045_mos.scs
Reading file:  /cadence/FOUNDRY/analog/45nm/models/spectre/gpdk045_diode.scs
Reading file:  /cadence/FOUNDRY/analog/45nm/models/spectre/gpdk045_bipolar.scs
Reading file:  /cadence/FOUNDRY/analog/45nm/models/spectre/gpdk045_mimcap.scs
Reading file:  /cadence/FOUNDRY/analog/45nm/models/spectre/gpdk045_moscap.scs
Reading file:  /cadence/FOUNDRY/analog/45nm/models/spectre/gpdk045_resistor.scs
Reading file:  /cadence/FOUNDRY/analog/45nm/models/spectre/gpdk045_inductor.scs
Reading file:  /cadence/FOUNDRY/analog/45nm/models/spectre/gpdk045_soa.scs
Reading file:  /home/ananya22131/Pooja_mam_project2/AND2X4/simulation/AND2X4/spectre/schematic/netlist/_graphical_stimuli_1.scs
Time for NDB Parsing: CPU = 366.183 ms, elapsed = 1.26682 s.
Time accumulated: CPU = 469.455 ms, elapsed = 1.26682 s.
Peak resident memory used = 72.3 Mbytes.

Reading link:  /cadence/SPECTRE191/tools.lnx86/spectre/etc/ahdl/discipline.h
Reading file:  /cadence/SPECTRE191/tools.lnx86/spectre/etc/ahdl/disciplines.vams
Reading link:  /cadence/SPECTRE191/tools.lnx86/spectre/etc/ahdl/constants.h
Reading file:  /cadence/SPECTRE191/tools.lnx86/spectre/etc/ahdl/constants.vams
Existing shared object for module bsource_2b273e is up to date.
Installed compiled interface for bsource_2b273e.
Time for Elaboration: CPU = 23.11 ms, elapsed = 23.1121 ms.
Time accumulated: CPU = 492.675 ms, elapsed = 1.29004 s.
Peak resident memory used = 81.9 Mbytes.


Warning from spectre during hierarchy flattening.
    WARNING (SPECTRE-17101): The value 'psf' specified for the 'checklimitdest' option will no longer be supported in future releases. Use 'spectre -h' to see other recommended values for the 'checklimitdest' option.


Time for EDB Visiting: CPU = 1.221 ms, elapsed = 1.22094 ms.
Time accumulated: CPU = 493.991 ms, elapsed = 1.29135 s.
Peak resident memory used = 82.9 Mbytes.


Notice from spectre during initial setup.
    Multithreading is disabled due to the size of the design being too small.


Global user options:
         psfversion = 1.4.0
            vabstol = 1e-06
            iabstol = 1e-12
               temp = 25
               gmin = 1e-12
             rforce = 1
           maxnotes = 5
           maxwarns = 5
             digits = 5
               cols = 80
             pivrel = 0.001
           sensfile = ../psf/sens.output
     checklimitdest = psf
               save = allpub
           currents = all
             reltol = 0.001
               tnom = 27
             scalem = 1
              scale = 1

Scoped user options:

Circuit inventory:
              nodes 13
              bsim4 6     
     bsource_2b273e 6     
          capacitor 1     
            vsource 4     

Analysis and control statement inventory:
               info 7     
               tran 1     

Output statements:
             .probe 0     
           .measure 0     
               save 0     


Notice from spectre during initial setup.
    1 vsources are short because their absolute value is less than or equal to 'vabsshort'.
    APS Enabled.

Time for parsing: CPU = 2.893 ms, elapsed = 3.84784 ms.
Time accumulated: CPU = 496.989 ms, elapsed = 1.29531 s.
Peak resident memory used = 84.5 Mbytes.

~~~~~~~~~~~~~~~~~~~~~~
Pre-Simulation Summary
~~~~~~~~~~~~~~~~~~~~~~
~~~~~~~~~~~~~~~~~~~~~~
Entering remote command mode using MPSC service (spectre, ipi, v0.0, spectre0_117931_21, ).

************************************************
Transient Analysis `tran': time = (0 s -> 11 ns)
************************************************

Notice from spectre during IC analysis, during transient analysis `tran'.
    GminDC = 1 pS is large enough to noticeably affect the DC solution.
        dV(net23) = 35.5934 mV
        Use the `gmin_check' option to eliminate or expand this report.

DC simulation time: CPU = 599 us, elapsed = 598.907 us.

Opening the PSFXL file ../psf/tran.tran.tran ...
Important parameter values:
    start = 0 s
    outputstart = 0 s
    stop = 11 ns
    step = 100 ps
    maxstep = 220 ps
    ic = all
    useprevic = no
    skipdc = no
    reltol = 1e-03
    abstol(V) = 1 uV
    abstol(I) = 1 pA
    temp = 25 C
    tnom = 27 C
    tempeffects = all
    errpreset = moderate
    method = traponly
    lteratio = 3.5
    relref = sigglobal
    cmin = 0 F
    gmin = 1 pS
    rabsshort = 1 mOhm


Notice from spectre during transient analysis `tran'.
    Multithreading is disabled due to the size of the design being too small.


Output and IC/nodeset summary:
                 save   40      (current)
                 save   12      (voltage)

    tran: time = 300 ps      (2.73 %), step = 200 ps       (1.82 %)
    tran: time = 870 ps      (7.91 %), step = 130 ps       (1.18 %)
    tran: time = 1.414 ns    (12.9 %), step = 41.2 ps      (375 m%)
    tran: time = 2.01 ns     (18.3 %), step = 111 ps       (1.01 %)
    tran: time = 2.606 ns    (23.7 %), step = 171.5 ps     (1.56 %)
    tran: time = 3.135 ns    (28.5 %), step = 150.9 ps     (1.37 %)
    tran: time = 3.752 ns    (34.1 %), step = 220 ps          (2 %)
    tran: time = 4.192 ns    (38.1 %), step = 220 ps          (2 %)

Notice from spectre at time = 4.63185 ns during transient analysis `tran'.
    Found trapezoidal ringing on node PM2.n1.
Notice from spectre at time = 4.85185 ns during transient analysis `tran'.
    Found trapezoidal ringing on node PM2.n1.

    tran: time = 4.852 ns    (44.1 %), step = 220 ps          (2 %)

Notice from spectre at time = 5.07185 ns during transient analysis `tran'.
    Found trapezoidal ringing on node net23.
Notice from spectre at time = 5.29185 ns during transient analysis `tran'.
    Found trapezoidal ringing on node net23.

    tran: time = 5.292 ns    (48.1 %), step = 220 ps          (2 %)

Notice from spectre at time = 5.51185 ns during transient analysis `tran'.
    Found trapezoidal ringing on node net23.
        Further occurrences of this notice will be suppressed.

    tran: time = 5.952 ns    (54.1 %), step = 220 ps          (2 %)
    tran: time = 6.359 ns    (57.8 %), step = 35.81 ps     (326 m%)
    tran: time = 6.904 ns    (62.8 %), step = 81.76 ps     (743 m%)
    tran: time = 7.429 ns    (67.5 %), step = 155.6 ps     (1.41 %)
    tran: time = 7.988 ns    (72.6 %), step = 163 ps       (1.48 %)
    tran: time = 8.593 ns    (78.1 %), step = 220 ps          (2 %)
    tran: time = 9.253 ns    (84.1 %), step = 220 ps          (2 %)
    tran: time = 9.693 ns    (88.1 %), step = 220 ps          (2 %)
    tran: time = 10.35 ns    (94.1 %), step = 220 ps          (2 %)
    tran: time = 10.79 ns    (98.1 %), step = 220 ps          (2 %)
Number of accepted tran steps =             160

Notice from spectre during transient analysis `tran'.
    Trapezoidal ringing is detected during tran analysis.
        Please use method=trap for better results and performance.


Maximum value achieved for any signal of each quantity: 
V: V(net24) = 1.008 V
I: I(_vVDD:p) = 382.9 uA
If your circuit contains signals of the same quantity that are vastly different in size (such as high voltage circuitry combined with low voltage control circuitry), you should consider specifying global option `bin_relref=yes'.

~~~~~~~~~~~~~~~~~~~~~~~~~~~~~~~~~
Post-Transient Simulation Summary
~~~~~~~~~~~~~~~~~~~~~~~~~~~~~~~~~
   -   To further speed up simulation, consider
          add ++aps on command line
~~~~~~~~~~~~~~~~~~~~~~~~~~~~~~~~~


During simulation, the CPU load for active processors is :
         0 (1.7 %)       1 (4.0 %)       2 (16.1 %)      3 (6.9 %)
         4 (3.5 %)       5 (9.8 %)       6 (6.8 %)       7 (4.5 %)
         8 (8.0 %)       9 (46.6 %)     10 (6.9 %)      11 (3.4 %)
        12 (5.1 %)      13 (3.4 %)      14 (2.9 %)      15 (5.1 %)
        16 (19.3 %)     17 (2.8 %)      18 (6.8 %)      19 (5.2 %)
        20 (2.3 %)      21 (1.7 %)      22 (6.9 %)      23 (1.7 %)
        24 (1.7 %)      25 (1.1 %)      26 (2.3 %)      27 (1.7 %)
        28 (1.7 %)      29 (2.8 %)      30 (4.0 %)      31 (6.8 %)
        32 (2.3 %)      33 (32.1 %)     34 (11.6 %)     35 (2.9 %)
        36 (8.0 %)      37 (6.4 %)      38 (2.9 %)      39 (2.3 %)
        40 (1.1 %)      41 (1.1 %)      42 (4.6 %)      43 (1.1 %)
        44 (1.1 %)      48 (2.3 %)      49 (16.6 %)     50 (20.5 %)
        51 (19.8 %)     52 (4.0 %)      53 (1.7 %)      
        Total: 349.8%
Initial condition solution time: CPU = 636 us, elapsed = 637.054 us.
Intrinsic tran analysis time:    CPU = 21.312 ms, elapsed = 16.227 ms.
Total time required for tran analysis `tran': CPU = 23.839 ms, elapsed = 18.7509 ms.
Time accumulated: CPU = 527.296 ms, elapsed = 2.00335 s.
Peak resident memory used = 88.6 Mbytes.


Notice from spectre.
    7 notices suppressed.

finalTimeOP: writing operating point information to rawfile.

Opening the PSF file ../psf/finalTimeOP.info ...
modelParameter: writing model parameter values to rawfile.

Opening the PSF file ../psf/modelParameter.info ...
element: writing instance parameter values to rawfile.

Opening the PSF file ../psf/element.info ...
outputParameter: writing output parameter values to rawfile.

Opening the PSF file ../psf/outputParameter.info ...
designParamVals: writing netlist parameters to rawfile.

Opening the PSFASCII file ../psf/designParamVals.info ...
primitives: writing primitives to rawfile.

Opening the PSFASCII file ../psf/primitives.info.primitives ...
subckts: writing subcircuits to rawfile.

Opening the PSFASCII file ../psf/subckts.info.subckts ...

Spectre received SIGTERM sent from PID: 24154 with UID: 1140.
Process hierarchy of PID 24154 :
    PID        COMMAND
    24154      /cadence/IC618/tools/bin/64bit/cdsServIpc -c 36219 -n 34 -r 0 -x cd /home/ananya22131/Pooja_mam_project2/AND2X4/simulation/AND2X4/spectre/schematic/netlist ; ./runSimulation 
    117931     /cadence/IC618/tools.lnx86/dfII/bin/64bit/virtuoso -ocean 
    117923     csh -c source /cadence/cshrc; ocean 
    107646     python data_gen_skew_opt.py 
    107587     bash 
    142933     /usr/libexec/gnome-terminal-server 

Error found by spectre.
    ERROR (SPECTRE-25): The simulation is stopped either by the user or the farm.


Aggregate audit (1:56:30 AM, Thur Oct 26, 2023):
Time used: CPU = 546 ms, elapsed = 11.9 s, util. = 4.6%.
Time spent in licensing: elapsed = 686 ms, percentage of total = 5.79%.
Peak memory used = 89.7 Mbytes.
Simulation started at: 1:56:18 AM, Thur Oct 26, 2023, ended at: 1:56:30 AM, Thur Oct 26, 2023, with elapsed time (wall clock): 11.9 s.
spectre completes with 1 error, 1 warning, and 13 notices.
spectre terminated prematurely due to fatal error.
