
Spectre (R) Circuit Simulator
Version 19.1.0.396.isr8 64bit -- 19 Jun 2020
Copyright (C) 1989-2020 Cadence Design Systems, Inc. All rights reserved worldwide. Cadence and Spectre are registered trademarks of Cadence Design Systems, Inc. All others are the property of their respective holders.

Includes RSA BSAFE(R) Cryptographic or Security Protocol Software from RSA Security, Inc.

User: ananya22131   Host: edatools-server2   HostID: 7F0100   PID: 66580
Memory  available: 492.2286 MB  physical: 134.6428 GB
Linux   : Red Hat Enterprise Linux Server release 7.9 (Maipo)
CPU Type: Intel(R) Xeon(R) Gold 6226R CPU @ 2.90GHz
        Socket: Processors [Frequency] (Hyperthreaded Processor)
        0:       0 [3421.1] ( 32 ),  1 [3599.9] ( 33 ),  2 [3599.9] ( 34 )
                 3 [3320.7] ( 35 ),  4 [3599.9] ( 36 ),  5 [3599.9] ( 37 )
                 6 [3599.9] ( 38 ),  7 [3368.9] ( 39 ),  8 [3599.9] ( 40 )
                 9 [3597.0] ( 41 ), 10 [3599.9] ( 42 ), 11 [3386.6] ( 43 )
                12 [3599.9] ( 44 ), 13 [3599.9] ( 45 ), 14 [3599.9] ( 46 )
                15 [3599.9] ( 47 )
        1:      16 [3394.2] ( 48 ), 17 [3599.9] ( 49 ), 18 [3599.9] ( 50 )
                19 [3599.9] ( 51 ), 20 [3599.9] ( 52 ), 21 [3453.3] ( 53 )
                22 [3599.9] ( 54 ), 23 [3599.9] ( 55 ), 24 [3599.9] ( 56 )
                25 [3599.9] ( 57 ), 26 [3599.9] ( 58 ), 27 [3242.1] ( 59 )
                28 [3583.8] ( 60 ), 29 [3599.9] ( 61 ), 30 [3599.9] ( 62 )
                31 [3599.9] ( 63 )
        
System load averages (1min, 5min, 15min) : 7.3 %, 8.2 %, 7.2 %
Hyperthreading is enabled
HPC is enabled


Simulating `input.scs' on edatools-server2 at 1:49:20 PM, Thur Oct 26, 2023 (process id: 66580).
Current working directory: /home/ananya22131/Pooja_mam_project2/NOR2X8/simulation/NOR2X8/spectre/schematic/netlist
Command line:
    /cadence/SPECTRE191/tools/bin/spectre -64 input.scs +escchars +log  \
        ../psf/spectre.out +inter=mpsc +mpssession=spectre0_137501_21  \
        -format psfxl -raw ../psf +aps +lqtimeout 900 -maxw 5 -maxn 5  \
        -env ade
spectre pid = 66580

Loading /cadence/SPECTRE191/tools.lnx86/cmi/lib/64bit/5.0/libinfineon_sh.so ...
Loading /cadence/SPECTRE191/tools.lnx86/cmi/lib/64bit/5.0/libphilips_o_sh.so ...
Loading /cadence/SPECTRE191/tools.lnx86/cmi/lib/64bit/5.0/libphilips_sh.so ...
Loading /cadence/SPECTRE191/tools.lnx86/cmi/lib/64bit/5.0/libsparam_sh.so ...
Loading /cadence/SPECTRE191/tools.lnx86/cmi/lib/64bit/5.0/libstmodels_sh.so ...
Reading file:  /home/ananya22131/Pooja_mam_project2/NOR2X8/simulation/NOR2X8/spectre/schematic/netlist/input.scs
Reading file:  /cadence/SPECTRE191/tools.lnx86/spectre/etc/configs/spectre.cfg
Reading file:  /cadence/FOUNDRY/analog/45nm/models/spectre/gpdk045.scs
Reading file:  /cadence/FOUNDRY/analog/45nm/models/spectre/gpdk045_mos.scs
Reading file:  /cadence/FOUNDRY/analog/45nm/models/spectre/gpdk045_diode.scs
Reading file:  /cadence/FOUNDRY/analog/45nm/models/spectre/gpdk045_bipolar.scs
Reading file:  /cadence/FOUNDRY/analog/45nm/models/spectre/gpdk045_mimcap.scs
Reading file:  /cadence/FOUNDRY/analog/45nm/models/spectre/gpdk045_moscap.scs
Reading file:  /cadence/FOUNDRY/analog/45nm/models/spectre/gpdk045_resistor.scs
Reading file:  /cadence/FOUNDRY/analog/45nm/models/spectre/gpdk045_inductor.scs
Reading file:  /cadence/FOUNDRY/analog/45nm/models/spectre/gpdk045_soa.scs
Reading file:  /home/ananya22131/Pooja_mam_project2/NOR2X8/simulation/NOR2X8/spectre/schematic/netlist/_graphical_stimuli_1.scs
Time for NDB Parsing: CPU = 419.233 ms, elapsed = 1.48435 s.
Time accumulated: CPU = 710.162 ms, elapsed = 1.48435 s.
Peak resident memory used = 72.3 Mbytes.

Reading link:  /cadence/SPECTRE191/tools.lnx86/spectre/etc/ahdl/discipline.h
Reading file:  /cadence/SPECTRE191/tools.lnx86/spectre/etc/ahdl/disciplines.vams
Reading link:  /cadence/SPECTRE191/tools.lnx86/spectre/etc/ahdl/constants.h
Reading file:  /cadence/SPECTRE191/tools.lnx86/spectre/etc/ahdl/constants.vams
Existing shared object for module bsource_2b273e is up to date.
Installed compiled interface for bsource_2b273e.
Time for Elaboration: CPU = 23.754 ms, elapsed = 27.916 ms.
Time accumulated: CPU = 734.022 ms, elapsed = 1.51237 s.
Peak resident memory used = 81.8 Mbytes.


Warning from spectre during hierarchy flattening.
    WARNING (SPECTRE-17101): The value 'psf' specified for the 'checklimitdest' option will no longer be supported in future releases. Use 'spectre -h' to see other recommended values for the 'checklimitdest' option.


Time for EDB Visiting: CPU = 994 us, elapsed = 995.159 us.
Time accumulated: CPU = 735.121 ms, elapsed = 1.51347 s.
Peak resident memory used = 82.8 Mbytes.


Notice from spectre during initial setup.
    Multithreading is disabled due to the size of the design being too small.


Global user options:
         psfversion = 1.4.0
            vabstol = 1e-06
            iabstol = 1e-12
               temp = 25
               gmin = 1e-12
             rforce = 1
           maxnotes = 5
           maxwarns = 5
             digits = 5
               cols = 80
             pivrel = 0.001
           sensfile = ../psf/sens.output
     checklimitdest = psf
               save = allpub
           currents = all
             reltol = 0.001
               tnom = 27
             scalem = 1
              scale = 1

Scoped user options:

Circuit inventory:
              nodes 10
              bsim4 4     
     bsource_2b273e 4     
          capacitor 1     
            vsource 4     

Analysis and control statement inventory:
               info 7     
               tran 1     

Output statements:
             .probe 0     
           .measure 0     
               save 0     


Notice from spectre during initial setup.
    1 vsources are short because their absolute value is less than or equal to 'vabsshort'.
    APS Enabled.

Time for parsing: CPU = 2.491 ms, elapsed = 4.97603 ms.
Time accumulated: CPU = 737.693 ms, elapsed = 1.51853 s.
Peak resident memory used = 84.4 Mbytes.

~~~~~~~~~~~~~~~~~~~~~~
Pre-Simulation Summary
~~~~~~~~~~~~~~~~~~~~~~
~~~~~~~~~~~~~~~~~~~~~~
Entering remote command mode using MPSC service (spectre, ipi, v0.0, spectre0_137501_21, ).

************************************************
Transient Analysis `tran': time = (0 s -> 11 ns)
************************************************
DC simulation time: CPU = 458 us, elapsed = 458.002 us.

Opening the PSFXL file ../psf/tran.tran.tran ...
Important parameter values:
    start = 0 s
    outputstart = 0 s
    stop = 11 ns
    step = 100 ps
    maxstep = 220 ps
    ic = all
    useprevic = no
    skipdc = no
    reltol = 1e-03
    abstol(V) = 1 uV
    abstol(I) = 1 pA
    temp = 25 C
    tnom = 27 C
    tempeffects = all
    errpreset = moderate
    method = traponly
    lteratio = 3.5
    relref = sigglobal
    cmin = 0 F
    gmin = 1 pS
    rabsshort = 1 mOhm


Notice from spectre during transient analysis `tran'.
    Multithreading is disabled due to the size of the design being too small.


Output and IC/nodeset summary:
                 save   28      (current)
                 save   9       (voltage)

    tran: time = 300 ps      (2.73 %), step = 200 ps       (1.82 %)
    tran: time = 870 ps      (7.91 %), step = 130 ps       (1.18 %)
    tran: time = 1.38 ns     (12.5 %), step = 47.17 ps     (429 m%)
    tran: time = 1.983 ns      (18 %), step = 65.89 ps     (599 m%)

Notice from spectre at time = 2.39798 ns during transient analysis `tran'.
    Found trapezoidal ringing on node _vB:p.
Notice from spectre at time = 2.61798 ns during transient analysis `tran'.
    Found trapezoidal ringing on node _vB:p.

    tran: time = 2.618 ns    (23.8 %), step = 220 ps          (2 %)

Notice from spectre at time = 2.83798 ns during transient analysis `tran'.
    Found trapezoidal ringing on node _vB:p.
Notice from spectre at time = 3.05798 ns during transient analysis `tran'.
    Found trapezoidal ringing on node _vB:p.

    tran: time = 3.058 ns    (27.8 %), step = 220 ps          (2 %)

Notice from spectre at time = 3.27798 ns during transient analysis `tran'.
    Found trapezoidal ringing on node _vB:p.
        Further occurrences of this notice will be suppressed.

    tran: time = 3.718 ns    (33.8 %), step = 220 ps          (2 %)
    tran: time = 4.158 ns    (37.8 %), step = 220 ps          (2 %)
    tran: time = 4.818 ns    (43.8 %), step = 220 ps          (2 %)
    tran: time = 5.258 ns    (47.8 %), step = 220 ps          (2 %)
    tran: time = 5.918 ns    (53.8 %), step = 220 ps          (2 %)
    tran: time = 6.327 ns    (57.5 %), step = 21.01 ps     (191 m%)
    tran: time = 6.892 ns    (62.7 %), step = 50.19 ps     (456 m%)
    tran: time = 7.431 ns    (67.6 %), step = 183.4 ps     (1.67 %)
    tran: time = 8.101 ns    (73.6 %), step = 140.3 ps     (1.28 %)
    tran: time = 8.581 ns      (78 %), step = 184.7 ps     (1.68 %)
    tran: time = 9.241 ns      (84 %), step = 220 ps          (2 %)
    tran: time = 9.681 ns      (88 %), step = 220 ps          (2 %)
    tran: time = 10.34 ns      (94 %), step = 220 ps          (2 %)
    tran: time = 10.78 ns      (98 %), step = 220 ps          (2 %)
Number of accepted tran steps =             137

Notice from spectre during transient analysis `tran'.
    Trapezoidal ringing is detected during tran analysis.
        Please use method=trap for better results and performance.


Maximum value achieved for any signal of each quantity: 
V: V(net33) = 1.002 V
I: I(_vVDD:p) = 372.6 uA
If your circuit contains signals of the same quantity that are vastly different in size (such as high voltage circuitry combined with low voltage control circuitry), you should consider specifying global option `bin_relref=yes'.

~~~~~~~~~~~~~~~~~~~~~~~~~~~~~~~~~
Post-Transient Simulation Summary
~~~~~~~~~~~~~~~~~~~~~~~~~~~~~~~~~
   -   To further speed up simulation, consider
          add ++aps on command line
~~~~~~~~~~~~~~~~~~~~~~~~~~~~~~~~~


During simulation, the CPU load for active processors is :
         0 (22.6 %)      1 (12.1 %)      2 (8.3 %)       3 (18.9 %)
         4 (7.5 %)       5 (9.8 %)       6 (26.3 %)      7 (21.6 %)
         8 (14.9 %)      9 (21.6 %)     10 (15.7 %)     11 (9.8 %)
        12 (10.6 %)     13 (11.9 %)     14 (14.3 %)     15 (32.6 %)
        16 (18.8 %)     17 (7.5 %)      18 (4.4 %)      19 (4.4 %)
        20 (31.3 %)     21 (29.9 %)     22 (13.3 %)     23 (27.8 %)
        24 (22.2 %)     25 (22.2 %)     26 (34.3 %)     27 (12.7 %)
        28 (10.9 %)     29 (6.7 %)      30 (8.3 %)      31 (10.5 %)
        32 (1.5 %)      33 (8.9 %)      34 (6.0 %)      35 (3.0 %)
        36 (1.5 %)      37 (2.2 %)      38 (2.2 %)      39 (6.6 %)
        40 (2.2 %)      41 (1.5 %)      42 (4.5 %)      43 (2.2 %)
        44 (1.5 %)      45 (2.2 %)      46 (1.5 %)      47 (3.7 %)
        48 (1.5 %)      49 (9.6 %)      50 (5.9 %)      51 (4.4 %)
        52 (1.5 %)      53 (2.2 %)      54 (2.2 %)      55 (1.5 %)
        56 (2.2 %)      57 (1.5 %)      58 (2.2 %)      59 (9.0 %)
        60 (1.5 %)      61 (2.9 %)      62 (1.5 %)      63 (1.5 %)
        Total: 626.2%
Initial condition solution time: CPU = 502 us, elapsed = 501.871 us.
Intrinsic tran analysis time:    CPU = 16.108 ms, elapsed = 11.3389 ms.
Total time required for tran analysis `tran': CPU = 18.348 ms, elapsed = 13.5751 ms.
Time accumulated: CPU = 762.542 ms, elapsed = 1.7882 s.
Peak resident memory used = 88.4 Mbytes.


Notice from spectre.
    29 notices suppressed.

finalTimeOP: writing operating point information to rawfile.

Opening the PSF file ../psf/finalTimeOP.info ...
modelParameter: writing model parameter values to rawfile.

Opening the PSF file ../psf/modelParameter.info ...
element: writing instance parameter values to rawfile.

Opening the PSF file ../psf/element.info ...
outputParameter: writing output parameter values to rawfile.

Opening the PSF file ../psf/outputParameter.info ...
designParamVals: writing netlist parameters to rawfile.

Opening the PSFASCII file ../psf/designParamVals.info ...
primitives: writing primitives to rawfile.

Opening the PSFASCII file ../psf/primitives.info.primitives ...
subckts: writing subcircuits to rawfile.

Opening the PSFASCII file ../psf/subckts.info.subckts ...

Spectre received SIGTERM sent from PID: 66054 with UID: 1140.
Process hierarchy of PID 66054 :
    PID        COMMAND
    66054      /cadence/IC618/tools/bin/64bit/cdsServIpc -c 59384 -n 34 -r 0 -x cd /home/ananya22131/Pooja_mam_project2/NOR2X8/simulation/NOR2X8/spectre/schematic/netlist ; ./runSimulation 
    137501     /cadence/IC618/tools.lnx86/dfII/bin/64bit/virtuoso -ocean 
    137317     csh -c source /cadence/cshrc; ocean 
    166846     python data_gen_skew_opt.py 
    166780     bash 
    142933     /usr/libexec/gnome-terminal-server 

Error found by spectre.
    ERROR (SPECTRE-25): The simulation is stopped either by the user or the farm.


Aggregate audit (1:49:32 PM, Thur Oct 26, 2023):
Time used: CPU = 776 ms, elapsed = 11.8 s, util. = 6.59%.
Time spent in licensing: elapsed = 684 ms, percentage of total = 5.81%.
Peak memory used = 89.5 Mbytes.
Simulation started at: 1:49:20 PM, Thur Oct 26, 2023, ended at: 1:49:32 PM, Thur Oct 26, 2023, with elapsed time (wall clock): 11.8 s.
spectre completes with 1 error, 1 warning, and 12 notices.
spectre terminated prematurely due to fatal error.
