
Spectre (R) Circuit Simulator
Version 19.1.0.396.isr8 64bit -- 19 Jun 2020
Copyright (C) 1989-2020 Cadence Design Systems, Inc. All rights reserved worldwide. Cadence and Spectre are registered trademarks of Cadence Design Systems, Inc. All others are the property of their respective holders.

Includes RSA BSAFE(R) Cryptographic or Security Protocol Software from RSA Security, Inc.

User: poojabe   Host: edatools-server2   HostID: 7F0100   PID: 53733
Memory  available: 2.2400 GB  physical: 134.6428 GB
Linux   : Red Hat Enterprise Linux Server release 7.9 (Maipo)
CPU Type: Intel(R) Xeon(R) Gold 6226R CPU @ 2.90GHz
        Socket: Processors [Frequency] (Hyperthreaded Processor)
        0:       0 [3599.9] ( 32 ),  1 [3599.9] ( 33 ),  2 [3600.0] ( 34 )
                 3 [3599.9] ( 35 ),  4 [3599.9] ( 36 ),  5 [3599.9] ( 37 )
                 6 [3599.9] ( 38 ),  7 [3599.9] ( 39 ),  8 [3599.9] ( 40 )
                 9 [3559.5] ( 41 ), 10 [3599.9] ( 42 ), 11 [3565.9] ( 43 )
                12 [3599.9] ( 44 ), 13 [3565.9] ( 45 ), 14 [3599.9] ( 46 )
                15 [3599.9] ( 47 )
        1:      16 [3567.1] ( 48 ), 17 [3599.9] ( 49 ), 18 [3599.9] ( 50 )
                19 [3599.9] ( 51 ), 20 [3599.9] ( 52 ), 21 [3599.9] ( 53 )
                22 [3599.9] ( 54 ), 23 [3601.5] ( 55 ), 24 [3600.0] ( 56 )
                25 [3416.5] ( 57 ), 26 [3600.0] ( 58 ), 27 [3274.0] ( 59 )
                28 [3291.5] ( 60 ), 29 [3243.2] ( 61 ), 30 [3587.1] ( 62 )
                31 [3600.0] ( 63 )
        
System load averages (1min, 5min, 15min) : 125.6 %, 414.6 %, 228.7 %
Hyperthreading is enabled
HPC is enabled


Simulating `input.scs' on edatools-server2 at 11:10:08 AM, Wed Nov 1, 2023 (process id: 53733).
Current working directory: /home/poojabe/Desktop/PhD_Research/src_project/ml_lib_char/mlLibGen/gates/NAND2X2/simulation/NAND2X2/spectre/schematic/netlist
Command line:
    /cadence/SPECTRE191/tools/bin/spectre -64 input.scs +escchars +log  \
        ../psf/spectre.out +inter=mpsc +mpssession=spectre0_3605_201  \
        -format psfxl -raw ../psf +aps +lqtimeout 900 -maxw 5 -maxn 5  \
        -env ade
spectre pid = 53733

Loading /cadence/SPECTRE191/tools.lnx86/cmi/lib/64bit/5.0/libinfineon_sh.so ...
Loading /cadence/SPECTRE191/tools.lnx86/cmi/lib/64bit/5.0/libphilips_o_sh.so ...
Loading /cadence/SPECTRE191/tools.lnx86/cmi/lib/64bit/5.0/libphilips_sh.so ...
Loading /cadence/SPECTRE191/tools.lnx86/cmi/lib/64bit/5.0/libsparam_sh.so ...
Loading /cadence/SPECTRE191/tools.lnx86/cmi/lib/64bit/5.0/libstmodels_sh.so ...
Reading file:  /home/poojabe/Desktop/PhD_Research/src_project/ml_lib_char/mlLibGen/gates/NAND2X2/simulation/NAND2X2/spectre/schematic/netlist/input.scs
Reading file:  /cadence/SPECTRE191/tools.lnx86/spectre/etc/configs/spectre.cfg
Reading file:  /cadence/FOUNDRY/analog/45nm/models/spectre/gpdk045.scs
Reading file:  /cadence/FOUNDRY/analog/45nm/models/spectre/gpdk045_mos.scs
Reading file:  /cadence/FOUNDRY/analog/45nm/models/spectre/gpdk045_diode.scs
Reading file:  /cadence/FOUNDRY/analog/45nm/models/spectre/gpdk045_bipolar.scs
Reading file:  /cadence/FOUNDRY/analog/45nm/models/spectre/gpdk045_mimcap.scs
Reading file:  /cadence/FOUNDRY/analog/45nm/models/spectre/gpdk045_moscap.scs
Reading file:  /cadence/FOUNDRY/analog/45nm/models/spectre/gpdk045_resistor.scs
Reading file:  /cadence/FOUNDRY/analog/45nm/models/spectre/gpdk045_inductor.scs
Reading file:  /cadence/FOUNDRY/analog/45nm/models/spectre/gpdk045_soa.scs
Reading file:  /home/poojabe/Desktop/PhD_Research/src_project/ml_lib_char/mlLibGen/gates/NAND2X2/simulation/NAND2X2/spectre/schematic/netlist/_graphical_stimuli_1.scs
Time for NDB Parsing: CPU = 396.315 ms, elapsed = 1.22059 s.
Time accumulated: CPU = 488.681 ms, elapsed = 1.2206 s.
Peak resident memory used = 72.2 Mbytes.

Reading link:  /cadence/SPECTRE191/tools.lnx86/spectre/etc/ahdl/discipline.h
Reading file:  /cadence/SPECTRE191/tools.lnx86/spectre/etc/ahdl/disciplines.vams
Reading link:  /cadence/SPECTRE191/tools.lnx86/spectre/etc/ahdl/constants.h
Reading file:  /cadence/SPECTRE191/tools.lnx86/spectre/etc/ahdl/constants.vams
Existing shared object for module bsource_2b273e is up to date.
Installed compiled interface for bsource_2b273e.
Time for Elaboration: CPU = 23.548 ms, elapsed = 23.5491 ms.
Time accumulated: CPU = 512.329 ms, elapsed = 1.24425 s.
Peak resident memory used = 81.8 Mbytes.


Warning from spectre during hierarchy flattening.
    WARNING (SPECTRE-17101): The value 'psf' specified for the 'checklimitdest' option will no longer be supported in future releases. Use 'spectre -h' to see other recommended values for the 'checklimitdest' option.


Time for EDB Visiting: CPU = 1.055 ms, elapsed = 1.05596 ms.
Time accumulated: CPU = 513.483 ms, elapsed = 1.2454 s.
Peak resident memory used = 82.8 Mbytes.


Notice from spectre during initial setup.
    Multithreading is disabled due to the size of the design being too small.


Global user options:
         psfversion = 1.4.0
            vabstol = 1e-06
            iabstol = 1e-12
               temp = 25
               gmin = 1e-12
             rforce = 1
           maxnotes = 5
           maxwarns = 5
             digits = 5
               cols = 80
             pivrel = 0.001
           sensfile = ../psf/sens.output
     checklimitdest = psf
               save = allpub
           currents = all
             reltol = 0.001
               tnom = 27
             scalem = 1
              scale = 1

Scoped user options:

Circuit inventory:
              nodes 10
              bsim4 4     
     bsource_2b273e 4     
          capacitor 1     
            vsource 4     

Analysis and control statement inventory:
               info 7     
               tran 1     

Output statements:
             .probe 0     
           .measure 0     
               save 0     


Notice from spectre during initial setup.
    1 vsources are short because their absolute value is less than or equal to 'vabsshort'.
    APS Enabled.

Time for parsing: CPU = 2.476 ms, elapsed = 2.87986 ms.
Time accumulated: CPU = 516.05 ms, elapsed = 1.24837 s.
Peak resident memory used = 84.4 Mbytes.

~~~~~~~~~~~~~~~~~~~~~~
Pre-Simulation Summary
~~~~~~~~~~~~~~~~~~~~~~
~~~~~~~~~~~~~~~~~~~~~~
Entering remote command mode using MPSC service (spectre, ipi, v0.0, spectre0_3605_201, ).

************************************************
Transient Analysis `tran': time = (0 s -> 26 ns)
************************************************

Notice from spectre during IC analysis, during transient analysis `tran'.
    GminDC = 1 pS is large enough to noticeably affect the DC solution.
        dV(n0) = 25.8413 mV
        Use the `gmin_check' option to eliminate or expand this report.

DC simulation time: CPU = 548 us, elapsed = 548.84 us.

Opening the PSFXL file ../psf/tran.tran.tran ...
Important parameter values:
    start = 0 s
    outputstart = 0 s
    stop = 26 ns
    step = 100 ps
    maxstep = 520 ps
    ic = all
    useprevic = no
    skipdc = no
    reltol = 1e-03
    abstol(V) = 1 uV
    abstol(I) = 1 pA
    temp = 25 C
    tnom = 27 C
    tempeffects = all
    errpreset = moderate
    method = traponly
    lteratio = 3.5
    relref = sigglobal
    cmin = 0 F
    gmin = 1 pS
    rabsshort = 1 mOhm


Notice from spectre during transient analysis `tran'.
    Multithreading is disabled due to the size of the design being too small.


Output and IC/nodeset summary:
                 save   28      (current)
                 save   9       (voltage)

    tran: time = 700 ps      (2.69 %), step = 400 ps       (1.54 %)
    tran: time = 2.26 ns     (8.69 %), step = 520 ps          (2 %)
    tran: time = 3.338 ns    (12.8 %), step = 115.9 ps     (446 m%)

Notice from spectre at time = 3.84751 ns during transient analysis `tran'.
    Found trapezoidal ringing on node _vA:p.
Notice from spectre at time = 4.36751 ns during transient analysis `tran'.
    Found trapezoidal ringing on node _vA:p.
Notice from spectre at time = 4.68376 ns during transient analysis `tran'.
    Found trapezoidal ringing on node _vA:p.

    tran: time = 4.684 ns      (18 %), step = 316.2 ps     (1.22 %)

Notice from spectre at time = 5 ns during transient analysis `tran'.
    Found trapezoidal ringing on node _vA:p.

    tran: time = 5.96 ns     (22.9 %), step = 165.5 ps     (637 m%)

Notice from spectre at time = 7.27402 ns during transient analysis `tran'.
    Found trapezoidal ringing on node _vB:p.
        Further occurrences of this notice will be suppressed.

    tran: time = 7.274 ns      (28 %), step = 520 ps          (2 %)
    tran: time = 8.834 ns      (34 %), step = 520 ps          (2 %)
    tran: time = 9.874 ns      (38 %), step = 520 ps          (2 %)
    tran: time = 11.43 ns      (44 %), step = 520 ps          (2 %)
    tran: time = 12.47 ns      (48 %), step = 520 ps          (2 %)
    tran: time = 13.72 ns    (52.8 %), step = 113.4 ps     (436 m%)
    tran: time = 15.1 ns     (58.1 %), step = 326.5 ps     (1.26 %)
    tran: time = 16.43 ns    (63.2 %), step = 520 ps          (2 %)
    tran: time = 17.99 ns    (69.2 %), step = 520 ps          (2 %)
    tran: time = 19.03 ns    (73.2 %), step = 520 ps          (2 %)
    tran: time = 20.59 ns    (79.2 %), step = 520 ps          (2 %)
    tran: time = 21.63 ns    (83.2 %), step = 520 ps          (2 %)
    tran: time = 23 ns       (88.5 %), step = 424.3 ps     (1.63 %)
    tran: time = 24.11 ns    (92.7 %), step = 466.1 ps     (1.79 %)
    tran: time = 25.39 ns    (97.7 %), step = 49.76 ps     (191 m%)
Number of accepted tran steps =             227

Notice from spectre during transient analysis `tran'.
    Trapezoidal ringing is detected during tran analysis.
        Please use method=trap for better results and performance.


Maximum value achieved for any signal of each quantity: 
V: V(Y) = 1.204 V
I: I(_vVDD:p) = 308.5 uA
If your circuit contains signals of the same quantity that are vastly different in size (such as high voltage circuitry combined with low voltage control circuitry), you should consider specifying global option `bin_relref=yes'.

~~~~~~~~~~~~~~~~~~~~~~~~~~~~~~~~~
Post-Transient Simulation Summary
~~~~~~~~~~~~~~~~~~~~~~~~~~~~~~~~~
   -   To further speed up simulation, consider
          add ++aps on command line
~~~~~~~~~~~~~~~~~~~~~~~~~~~~~~~~~


During simulation, the CPU load for active processors is :
         0 (28.2 %)      1 (4.0 %)       2 (4.0 %)       3 (5.1 %)
         4 (5.7 %)       5 (4.0 %)       6 (4.6 %)       7 (8.6 %)
         8 (9.6 %)       9 (4.0 %)      10 (3.4 %)      11 (5.1 %)
        12 (7.9 %)      13 (4.0 %)      14 (5.1 %)      15 (23.3 %)
        16 (5.7 %)      17 (19.2 %)     18 (4.6 %)      19 (4.5 %)
        20 (4.0 %)      21 (5.1 %)      22 (4.6 %)      23 (2.8 %)
        24 (4.0 %)      25 (3.4 %)      26 (2.8 %)      27 (1.1 %)
        28 (4.0 %)      29 (3.4 %)      30 (1.7 %)      31 (3.4 %)
        32 (2.3 %)      33 (38.0 %)     34 (13.7 %)     35 (4.0 %)
        41 (3.4 %)      42 (3.4 %)      43 (1.7 %)      44 (3.4 %)
        45 (2.3 %)      47 (2.8 %)      48 (2.2 %)      49 (35.9 %)
        50 (15.1 %)     51 (13.7 %)     52 (3.4 %)      53 (1.1 %)
        55 (1.1 %)      56 (2.3 %)      57 (2.3 %)      59 (1.1 %)
        60 (2.8 %)      61 (1.7 %)      62 (1.7 %)      63 (9.6 %)
        Total: 371.5%
Initial condition solution time: CPU = 585 us, elapsed = 586.987 us.
Intrinsic tran analysis time:    CPU = 27.538 ms, elapsed = 23.0711 ms.
Total time required for tran analysis `tran': CPU = 29.848 ms, elapsed = 25.3832 ms.
Time accumulated: CPU = 552.262 ms, elapsed = 2.02386 s.
Peak resident memory used = 88.4 Mbytes.


Notice from spectre.
    27 notices suppressed.

finalTimeOP: writing operating point information to rawfile.

Opening the PSF file ../psf/finalTimeOP.info ...
modelParameter: writing model parameter values to rawfile.

Opening the PSF file ../psf/modelParameter.info ...
element: writing instance parameter values to rawfile.

Opening the PSF file ../psf/element.info ...
outputParameter: writing output parameter values to rawfile.

Opening the PSF file ../psf/outputParameter.info ...
designParamVals: writing netlist parameters to rawfile.

Opening the PSFASCII file ../psf/designParamVals.info ...
primitives: writing primitives to rawfile.

Opening the PSFASCII file ../psf/primitives.info.primitives ...
subckts: writing subcircuits to rawfile.

Opening the PSFASCII file ../psf/subckts.info.subckts ...

Spectre received SIGTERM sent from PID: 53536 with UID: 1111.
Process hierarchy of PID 53536 :
    PID        COMMAND
    53536      /cadence/IC618/tools/bin/64bit/cdsServIpc -c 49109 -n 214 -r 0 -x cd /home/poojabe/Desktop/PhD_Research/src_project/ml_lib_char/mlLibGen/gates/NAND2X2/simulation/NAND2X2/spectre/schematic/netlist ; ./runSimulation 
    3605       /cadence/IC618/tools.lnx86/dfII/bin/64bit/virtuoso -ocean 
    3597       csh -c source /cadence/cshrc; ocean 
    3506       python data_gen_none.py 
    178381     bash 
    169597     /usr/libexec/gnome-terminal-server 

Error found by spectre.
    ERROR (SPECTRE-25): The simulation is stopped either by the user or the farm.


Aggregate audit (11:10:22 AM, Wed Nov 1, 2023):
Time used: CPU = 566 ms, elapsed = 13.2 s, util. = 4.28%.
Time spent in licensing: elapsed = 596 ms.
Peak memory used = 89.5 Mbytes.
Simulation started at: 11:10:08 AM, Wed Nov 1, 2023, ended at: 11:10:22 AM, Wed Nov 1, 2023, with elapsed time (wall clock): 13.2 s.
spectre completes with 1 error, 1 warning, and 13 notices.
spectre terminated prematurely due to fatal error.
