
Spectre (R) Circuit Simulator
Version 19.1.0.396.isr8 64bit -- 19 Jun 2020
Copyright (C) 1989-2020 Cadence Design Systems, Inc. All rights reserved worldwide. Cadence and Spectre are registered trademarks of Cadence Design Systems, Inc. All others are the property of their respective holders.

Includes RSA BSAFE(R) Cryptographic or Security Protocol Software from RSA Security, Inc.

User: poojabe   Host: edatools-server2   HostID: 7F0100   PID: 94180
Memory  available: 645.7262 MB  physical: 134.6428 GB
Linux   : Red Hat Enterprise Linux Server release 7.9 (Maipo)
CPU Type: Intel(R) Xeon(R) Gold 6226R CPU @ 2.90GHz
        Socket: Processors [Frequency] (Hyperthreaded Processor)
        0:       0 [3599.9] ( 32 ),  1 [3599.9] ( 33 ),  2 [3439.7] ( 34 )
                 3 [3599.9] ( 35 ),  4 [3599.9] ( 36 ),  5 [3599.9] ( 37 )
                 6 [2257.5] ( 38 ),  7 [3442.7] ( 39 ),  8 [3553.3] ( 40 )
                 9 [3600.0] ( 41 ), 10 [3599.9] ( 42 ), 11 [3599.9] ( 43 )
                12 [3538.6] ( 44 ), 13 [3599.9] ( 45 ), 14 [3514.2] ( 46 )
                15 [3548.2] ( 47 )
        1:      16 [3328.9] ( 48 ), 17 [3599.7] ( 49 ), 18 [3551.4] ( 50 )
                19 [3599.9] ( 51 ), 20 [3599.9] ( 52 ), 21 [3597.2] ( 53 )
                22 [3599.9] ( 54 ), 23 [3500.2] ( 55 ), 24 [3600.2] ( 56 )
                25 [3599.9] ( 57 ), 26 [3599.9] ( 58 ), 27 [3498.3] ( 59 )
                28 [3599.9] ( 60 ), 29 [3599.9] ( 61 ), 30 [3599.9] ( 62 )
                31 [3471.7] ( 63 )
        
System load averages (1min, 5min, 15min) : 9.7 %, 7.9 %, 16.6 %
Hyperthreading is enabled
HPC is enabled


Simulating `input.scs' on edatools-server2 at 6:36:39 PM, Fri Oct 20, 2023 (process id: 94180).
Current working directory: /home/poojabe/Desktop/PhD_Research/src_project/ml_lib_char/MLLibGen/gates/AND2X1/simulation/AND2X1/spectre/schematic/netlist
Command line:
    /cadence/SPECTRE191/tools/bin/spectre -64 input.scs +escchars +log  \
        ../psf/spectre.out +inter=mpsc +mpssession=spectre0_65274_17  \
        -format psfxl -raw ../psf +aps +lqtimeout 900 -maxw 5 -maxn 5  \
        -env ade
spectre pid = 94180

Loading /cadence/SPECTRE191/tools.lnx86/cmi/lib/64bit/5.0/libinfineon_sh.so ...
Loading /cadence/SPECTRE191/tools.lnx86/cmi/lib/64bit/5.0/libphilips_o_sh.so ...
Loading /cadence/SPECTRE191/tools.lnx86/cmi/lib/64bit/5.0/libphilips_sh.so ...
Loading /cadence/SPECTRE191/tools.lnx86/cmi/lib/64bit/5.0/libsparam_sh.so ...
Loading /cadence/SPECTRE191/tools.lnx86/cmi/lib/64bit/5.0/libstmodels_sh.so ...
Reading file:  /home/poojabe/Desktop/PhD_Research/src_project/ml_lib_char/MLLibGen/gates/AND2X1/simulation/AND2X1/spectre/schematic/netlist/input.scs
Reading file:  /cadence/SPECTRE191/tools.lnx86/spectre/etc/configs/spectre.cfg
Reading file:  /cadence/FOUNDRY/analog/45nm/models/spectre/gpdk045.scs
Reading file:  /cadence/FOUNDRY/analog/45nm/models/spectre/gpdk045_mos.scs
Reading file:  /cadence/FOUNDRY/analog/45nm/models/spectre/gpdk045_diode.scs
Reading file:  /cadence/FOUNDRY/analog/45nm/models/spectre/gpdk045_bipolar.scs
Reading file:  /cadence/FOUNDRY/analog/45nm/models/spectre/gpdk045_mimcap.scs
Reading file:  /cadence/FOUNDRY/analog/45nm/models/spectre/gpdk045_moscap.scs
Reading file:  /cadence/FOUNDRY/analog/45nm/models/spectre/gpdk045_resistor.scs
Reading file:  /cadence/FOUNDRY/analog/45nm/models/spectre/gpdk045_inductor.scs
Reading file:  /cadence/FOUNDRY/analog/45nm/models/spectre/gpdk045_soa.scs
Reading file:  /home/poojabe/Desktop/PhD_Research/src_project/ml_lib_char/MLLibGen/gates/AND2X1/simulation/AND2X1/spectre/schematic/netlist/_graphical_stimuli_1.scs
Time for NDB Parsing: CPU = 376.496 ms, elapsed = 1.43378 s.
Time accumulated: CPU = 478.755 ms, elapsed = 1.43378 s.
Peak resident memory used = 72.2 Mbytes.

Reading link:  /cadence/SPECTRE191/tools.lnx86/spectre/etc/ahdl/discipline.h
Reading file:  /cadence/SPECTRE191/tools.lnx86/spectre/etc/ahdl/disciplines.vams
Reading link:  /cadence/SPECTRE191/tools.lnx86/spectre/etc/ahdl/constants.h
Reading file:  /cadence/SPECTRE191/tools.lnx86/spectre/etc/ahdl/constants.vams
Existing shared object for module bsource_2b273e is up to date.
Installed compiled interface for bsource_2b273e.
Time for Elaboration: CPU = 27.625 ms, elapsed = 31.316 ms.
Time accumulated: CPU = 506.49 ms, elapsed = 1.46521 s.
Peak resident memory used = 81.8 Mbytes.


Warning from spectre during hierarchy flattening.
    WARNING (SPECTRE-17101): The value 'psf' specified for the 'checklimitdest' option will no longer be supported in future releases. Use 'spectre -h' to see other recommended values for the 'checklimitdest' option.


Time for EDB Visiting: CPU = 1.223 ms, elapsed = 1.22309 ms.
Time accumulated: CPU = 507.823 ms, elapsed = 1.46654 s.
Peak resident memory used = 82.8 Mbytes.


Notice from spectre during initial setup.
    Multithreading is disabled due to the size of the design being too small.


Global user options:
         psfversion = 1.4.0
            vabstol = 1e-06
            iabstol = 1e-12
               temp = 25
               gmin = 1e-12
             rforce = 1
           maxnotes = 5
           maxwarns = 5
             digits = 5
               cols = 80
             pivrel = 0.001
           sensfile = ../psf/sens.output
     checklimitdest = psf
               save = allpub
           currents = all
             reltol = 0.001
               tnom = 27
             scalem = 1
              scale = 1

Scoped user options:

Circuit inventory:
              nodes 13
              bsim4 6     
     bsource_2b273e 6     
          capacitor 1     
            vsource 4     

Analysis and control statement inventory:
               info 7     
               tran 1     

Output statements:
             .probe 0     
           .measure 0     
               save 0     


Notice from spectre during initial setup.
    1 vsources are short because their absolute value is less than or equal to 'vabsshort'.
    APS Enabled.

Time for parsing: CPU = 4.907 ms, elapsed = 7.25508 ms.
Time accumulated: CPU = 512.815 ms, elapsed = 1.47388 s.
Peak resident memory used = 84.4 Mbytes.

~~~~~~~~~~~~~~~~~~~~~~
Pre-Simulation Summary
~~~~~~~~~~~~~~~~~~~~~~
~~~~~~~~~~~~~~~~~~~~~~
Entering remote command mode using MPSC service (spectre, ipi, v0.0, spectre0_65274_17, ).

************************************************
Transient Analysis `tran': time = (0 s -> 21 ns)
************************************************
Trying `homotopy = gmin' for initial conditions.

Notice from spectre during IC analysis, during transient analysis `tran'.
    GminDC = 1 pS is large enough to noticeably affect the DC solution.
        dV(net2) = 80.7143 mV
        Use the `gmin_check' option to eliminate or expand this report.

DC simulation time: CPU = 3.09 ms, elapsed = 3.0899 ms.

Opening the PSFXL file ../psf/tran.tran.tran ...
Important parameter values:
    start = 0 s
    outputstart = 0 s
    stop = 21 ns
    step = 100 ps
    maxstep = 420 ps
    ic = all
    useprevic = no
    skipdc = no
    reltol = 1e-03
    abstol(V) = 1 uV
    abstol(I) = 1 pA
    temp = 25 C
    tnom = 27 C
    tempeffects = all
    errpreset = moderate
    method = traponly
    lteratio = 3.5
    relref = sigglobal
    cmin = 0 F
    gmin = 1 pS
    rabsshort = 1 mOhm


Notice from spectre during transient analysis `tran'.
    Multithreading is disabled due to the size of the design being too small.


Output and IC/nodeset summary:
                 save   40      (current)
                 save   12      (voltage)

    tran: time = 700 ps      (3.33 %), step = 400 ps        (1.9 %)
    tran: time = 1.587 ns    (7.56 %), step = 58.49 ps     (279 m%)
    tran: time = 2.73 ns       (13 %), step = 372.6 ps     (1.77 %)
    tran: time = 3.775 ns      (18 %), step = 391.6 ps     (1.86 %)
    tran: time = 4.808 ns    (22.9 %), step = 402.5 ps     (1.92 %)
    tran: time = 5.874 ns      (28 %), step = 226.2 ps     (1.08 %)

Notice from spectre at time = 6.1 ns during transient analysis `tran'.
    Found trapezoidal ringing on node _vB:p.
Notice from spectre at time = 6.20181 ns during transient analysis `tran'.
    Found trapezoidal ringing on node PM0.n1.

    tran: time = 6.882 ns    (32.8 %), step = 162.4 ps     (773 m%)
    tran: time = 8.173 ns    (38.9 %), step = 338.3 ps     (1.61 %)
    tran: time = 9.097 ns    (43.3 %), step = 317.2 ps     (1.51 %)
    tran: time = 10.35 ns    (49.3 %), step = 420 ps          (2 %)
    tran: time = 11.03 ns    (52.5 %), step = 10.81 ps    (51.5 m%)
    tran: time = 12.21 ns    (58.1 %), step = 368.6 ps     (1.76 %)
    tran: time = 13.26 ns    (63.1 %), step = 317.2 ps     (1.51 %)
    tran: time = 14.3 ns     (68.1 %), step = 323 ps       (1.54 %)
    tran: time = 15.5 ns     (73.8 %), step = 420 ps          (2 %)
    tran: time = 16.31 ns    (77.7 %), step = 47.56 ps     (226 m%)
    tran: time = 17.54 ns    (83.5 %), step = 333.9 ps     (1.59 %)
    tran: time = 18.5 ns     (88.1 %), step = 328 ps       (1.56 %)
    tran: time = 19.51 ns    (92.9 %), step = 417.6 ps     (1.99 %)
    tran: time = 20.68 ns    (98.5 %), step = 322.8 ps     (1.54 %)
Number of accepted tran steps =             311

Notice from spectre during transient analysis `tran'.
    Trapezoidal ringing is detected during tran analysis.
        Please use method=trap for better results and performance.


Maximum value achieved for any signal of each quantity: 
V: V(PM2.n1) = 1.213 V
I: I(_vVDD:p) = 92.02 uA
If your circuit contains signals of the same quantity that are vastly different in size (such as high voltage circuitry combined with low voltage control circuitry), you should consider specifying global option `bin_relref=yes'.

~~~~~~~~~~~~~~~~~~~~~~~~~~~~~~~~~
Post-Transient Simulation Summary
~~~~~~~~~~~~~~~~~~~~~~~~~~~~~~~~~
   -   To further speed up simulation, consider
          add ++aps on command line
~~~~~~~~~~~~~~~~~~~~~~~~~~~~~~~~~


During simulation, the CPU load for active processors is :
         0 (12.3 %)      1 (8.1 %)       2 (6.2 %)       3 (19.8 %)
         4 (4.3 %)       5 (17.4 %)      6 (9.9 %)       7 (17.9 %)
         8 (32.5 %)      9 (8.0 %)      10 (11.8 %)     11 (3.8 %)
        12 (11.8 %)     13 (3.7 %)      14 (7.5 %)      15 (6.1 %)
        16 (14.7 %)     17 (11.7 %)     18 (10.4 %)     19 (17.4 %)
        20 (28.7 %)     21 (7.5 %)      22 (4.3 %)      23 (13.6 %)
        24 (4.3 %)      25 (8.6 %)      26 (3.7 %)      27 (5.6 %)
        28 (44.8 %)     29 (100.0 %)    30 (99.4 %)     31 (6.8 %)
        32 (42.0 %)     33 (9.9 %)      34 (24.2 %)     35 (7.4 %)
        36 (5.0 %)      38 (1.8 %)      39 (3.6 %)      40 (25.5 %)
        44 (3.1 %)      49 (19.7 %)     50 (9.3 %)      51 (3.7 %)
        52 (1.2 %)      53 (17.8 %)     54 (1.2 %)      63 (1.2 %)
        Total: 742.9%
Initial condition solution time: CPU = 3.128 ms, elapsed = 3.12901 ms.
Intrinsic tran analysis time:    CPU = 64.458 ms, elapsed = 41.7728 ms.
Total time required for tran analysis `tran': CPU = 69.741 ms, elapsed = 47.0519 ms.
Time accumulated: CPU = 590.578 ms, elapsed = 2.0068 s.
Peak resident memory used = 88.7 Mbytes.

finalTimeOP: writing operating point information to rawfile.

Opening the PSF file ../psf/finalTimeOP.info ...
modelParameter: writing model parameter values to rawfile.

Opening the PSF file ../psf/modelParameter.info ...
element: writing instance parameter values to rawfile.

Opening the PSF file ../psf/element.info ...
outputParameter: writing output parameter values to rawfile.

Opening the PSF file ../psf/outputParameter.info ...
designParamVals: writing netlist parameters to rawfile.

Opening the PSFASCII file ../psf/designParamVals.info ...
primitives: writing primitives to rawfile.

Opening the PSFASCII file ../psf/primitives.info.primitives ...
subckts: writing subcircuits to rawfile.

Opening the PSFASCII file ../psf/subckts.info.subckts ...

Spectre received SIGTERM sent from PID: 94074 with UID: 1111.
Process hierarchy of PID 94074 :
    PID        COMMAND
    94074      /cadence/IC618/tools/bin/64bit/cdsServIpc -c 57363 -n 30 -r 0 -x cd /home/poojabe/Desktop/PhD_Research/src_project/ml_lib_char/MLLibGen/gates/AND2X1/simulation/AND2X1/spectre/schematic/netlist ; ./runSimulation 
    65274      /cadence/IC618/tools.lnx86/dfII/bin/64bit/virtuoso -ocean 
    65264      csh -c source /cadence/cshrc; ocean 
    65196      python genDataset.py 
    65182      python genDataset.py 
    64885      bash 
    84866      /usr/libexec/gnome-terminal-server 

Error found by spectre.
    ERROR (SPECTRE-25): The simulation is stopped either by the user or the farm.


Aggregate audit (6:36:51 PM, Fri Oct 20, 2023):
Time used: CPU = 605 ms, elapsed = 12 s, util. = 5.03%.
Time spent in licensing: elapsed = 701 ms, percentage of total = 5.83%.
Peak memory used = 89.5 Mbytes.
Simulation started at: 6:36:39 PM, Fri Oct 20, 2023, ended at: 6:36:51 PM, Fri Oct 20, 2023, with elapsed time (wall clock): 12 s.
spectre completes with 1 error, 1 warning, and 9 notices.
spectre terminated prematurely due to fatal error.
