Spectre (R) Circuit Simulator
Version 19.1.0.396.isr8 64bit -- 19 Jun 2020
Simulating `input.scs' on edatools-server2 at 2:17:02 PM, Fri Oct 20, 2023 (process id: 53003).
H = mpsImport( "spectre" "ipi" "v0.0" ?session "spectre0_63213_125" )
H->sclSetResultDir( "../psf" )
H->sclRun( "all" )
H->sclEcho( "@-@" )
