
Spectre (R) Circuit Simulator
Version 19.1.0.396.isr8 64bit -- 19 Jun 2020
Copyright (C) 1989-2020 Cadence Design Systems, Inc. All rights reserved worldwide. Cadence and Spectre are registered trademarks of Cadence Design Systems, Inc. All others are the property of their respective holders.

Includes RSA BSAFE(R) Cryptographic or Security Protocol Software from RSA Security, Inc.

User: ananya22131   Host: edatools-server2   HostID: 7F0100   PID: 136664
Memory  available: 686.4199 MB  physical: 134.6428 GB
Linux   : Red Hat Enterprise Linux Server release 7.9 (Maipo)
CPU Type: Intel(R) Xeon(R) Gold 6226R CPU @ 2.90GHz
        Socket: Processors [Frequency] (Hyperthreaded Processor)
        0:       0 [3524.3] ( 32 ),  1 [3599.9] ( 33 ),  2 [3599.9] ( 34 )
                 3 [3599.9] ( 35 ),  4 [3599.9] ( 36 ),  5 [3528.7] ( 37 )
                 6 [3448.0] ( 38 ),  7 [3599.9] ( 39 ),  8 [3459.1] ( 40 )
                 9 [3564.6] ( 41 ), 10 [3597.7] ( 42 ), 11 [3511.7] ( 43 )
                12 [3579.7] ( 44 ), 13 [3570.3] ( 45 ), 14 [3568.5] ( 46 )
                15 [3599.5] ( 47 )
        1:      16 [3648.7] ( 48 ), 17 [3036.3] ( 49 ), 18 [3383.0] ( 50 )
                19 [2351.3] ( 51 ), 20 [3600.4] ( 52 ), 21 [3480.9] ( 53 )
                22 [3465.3] ( 54 ), 23 [3317.9] ( 55 ), 24 [3292.9] ( 56 )
                25 [3146.7] ( 57 ), 26 [2115.2] ( 58 ), 27 [1360.8] ( 59 )
                28 [3582.0] ( 60 ), 29 [2862.1] ( 61 ), 30 [3529.6] ( 62 )
                31 [3383.4] ( 63 )
        
System load averages (1min, 5min, 15min) : 3.3 %, 5.3 %, 6.3 %
Hyperthreading is enabled
HPC is enabled


Simulating `input.scs' on edatools-server2 at 1:57:48 PM, Thur Oct 26, 2023 (process id: 136664).
Current working directory: /home/ananya22131/Pooja_mam_project2/OR2X4/simulation/OR2X4/spectre/schematic/netlist
Command line:
    /cadence/SPECTRE191/tools/bin/spectre -64 input.scs +escchars +log  \
        ../psf/spectre.out +inter=mpsc +mpssession=spectre0_39576_19  \
        -format psfxl -raw ../psf +aps +lqtimeout 900 -maxw 5 -maxn 5  \
        -env ade
spectre pid = 136664

Loading /cadence/SPECTRE191/tools.lnx86/cmi/lib/64bit/5.0/libinfineon_sh.so ...
Loading /cadence/SPECTRE191/tools.lnx86/cmi/lib/64bit/5.0/libphilips_o_sh.so ...
Loading /cadence/SPECTRE191/tools.lnx86/cmi/lib/64bit/5.0/libphilips_sh.so ...
Loading /cadence/SPECTRE191/tools.lnx86/cmi/lib/64bit/5.0/libsparam_sh.so ...
Loading /cadence/SPECTRE191/tools.lnx86/cmi/lib/64bit/5.0/libstmodels_sh.so ...
Reading file:  /home/ananya22131/Pooja_mam_project2/OR2X4/simulation/OR2X4/spectre/schematic/netlist/input.scs
Reading file:  /cadence/SPECTRE191/tools.lnx86/spectre/etc/configs/spectre.cfg
Reading file:  /cadence/FOUNDRY/analog/45nm/models/spectre/gpdk045.scs
Reading file:  /cadence/FOUNDRY/analog/45nm/models/spectre/gpdk045_mos.scs
Reading file:  /cadence/FOUNDRY/analog/45nm/models/spectre/gpdk045_diode.scs
Reading file:  /cadence/FOUNDRY/analog/45nm/models/spectre/gpdk045_bipolar.scs
Reading file:  /cadence/FOUNDRY/analog/45nm/models/spectre/gpdk045_mimcap.scs
Reading file:  /cadence/FOUNDRY/analog/45nm/models/spectre/gpdk045_moscap.scs
Reading file:  /cadence/FOUNDRY/analog/45nm/models/spectre/gpdk045_resistor.scs
Reading file:  /cadence/FOUNDRY/analog/45nm/models/spectre/gpdk045_inductor.scs
Reading file:  /cadence/FOUNDRY/analog/45nm/models/spectre/gpdk045_soa.scs
Reading file:  /home/ananya22131/Pooja_mam_project2/OR2X4/simulation/OR2X4/spectre/schematic/netlist/_graphical_stimuli_1.scs
Time for NDB Parsing: CPU = 372.938 ms, elapsed = 1.22831 s.
Time accumulated: CPU = 463.734 ms, elapsed = 1.22831 s.
Peak resident memory used = 72.3 Mbytes.

Reading link:  /cadence/SPECTRE191/tools.lnx86/spectre/etc/ahdl/discipline.h
Reading file:  /cadence/SPECTRE191/tools.lnx86/spectre/etc/ahdl/disciplines.vams
Reading link:  /cadence/SPECTRE191/tools.lnx86/spectre/etc/ahdl/constants.h
Reading file:  /cadence/SPECTRE191/tools.lnx86/spectre/etc/ahdl/constants.vams
Existing shared object for module bsource_2b273e is up to date.
Installed compiled interface for bsource_2b273e.
Time for Elaboration: CPU = 24.137 ms, elapsed = 24.487 ms.
Time accumulated: CPU = 487.977 ms, elapsed = 1.25291 s.
Peak resident memory used = 81.9 Mbytes.


Warning from spectre during hierarchy flattening.
    WARNING (SPECTRE-17101): The value 'psf' specified for the 'checklimitdest' option will no longer be supported in future releases. Use 'spectre -h' to see other recommended values for the 'checklimitdest' option.


Time for EDB Visiting: CPU = 1.213 ms, elapsed = 1.21498 ms.
Time accumulated: CPU = 489.288 ms, elapsed = 1.25422 s.
Peak resident memory used = 82.9 Mbytes.


Notice from spectre during initial setup.
    Multithreading is disabled due to the size of the design being too small.


Global user options:
         psfversion = 1.4.0
            vabstol = 1e-06
            iabstol = 1e-12
               temp = 25
               gmin = 1e-12
             rforce = 1
           maxnotes = 5
           maxwarns = 5
             digits = 5
               cols = 80
             pivrel = 0.001
           sensfile = ../psf/sens.output
     checklimitdest = psf
               save = allpub
           currents = all
             reltol = 0.001
               tnom = 27
             scalem = 1
              scale = 1

Scoped user options:

Circuit inventory:
              nodes 13
              bsim4 6     
     bsource_2b273e 6     
          capacitor 1     
            vsource 4     

Analysis and control statement inventory:
               info 7     
               tran 1     

Output statements:
             .probe 0     
           .measure 0     
               save 0     


Notice from spectre during initial setup.
    1 vsources are short because their absolute value is less than or equal to 'vabsshort'.
    APS Enabled.

Time for parsing: CPU = 2.634 ms, elapsed = 3.37195 ms.
Time accumulated: CPU = 492.01 ms, elapsed = 1.25768 s.
Peak resident memory used = 84.5 Mbytes.

~~~~~~~~~~~~~~~~~~~~~~
Pre-Simulation Summary
~~~~~~~~~~~~~~~~~~~~~~
~~~~~~~~~~~~~~~~~~~~~~
Entering remote command mode using MPSC service (spectre, ipi, v0.0, spectre0_39576_19, ).

************************************************
Transient Analysis `tran': time = (0 s -> 11 ns)
************************************************
DC simulation time: CPU = 631 us, elapsed = 632.048 us.

Opening the PSFXL file ../psf/tran.tran.tran ...
Important parameter values:
    start = 0 s
    outputstart = 0 s
    stop = 11 ns
    step = 100 ps
    maxstep = 220 ps
    ic = all
    useprevic = no
    skipdc = no
    reltol = 1e-03
    abstol(V) = 1 uV
    abstol(I) = 1 pA
    temp = 25 C
    tnom = 27 C
    tempeffects = all
    errpreset = moderate
    method = traponly
    lteratio = 3.5
    relref = sigglobal
    cmin = 0 F
    gmin = 1 pS
    rabsshort = 1 mOhm


Notice from spectre during transient analysis `tran'.
    Multithreading is disabled due to the size of the design being too small.


Output and IC/nodeset summary:
                 save   40      (current)
                 save   12      (voltage)

    tran: time = 300 ps      (2.73 %), step = 200 ps       (1.82 %)
    tran: time = 870 ps      (7.91 %), step = 130 ps       (1.18 %)
    tran: time = 1.388 ns    (12.6 %), step = 32.83 ps     (298 m%)
    tran: time = 2.002 ns    (18.2 %), step = 147.5 ps     (1.34 %)
    tran: time = 2.532 ns      (23 %), step = 157.5 ps     (1.43 %)
    tran: time = 3.086 ns    (28.1 %), step = 220 ps          (2 %)

Notice from spectre at time = 3.74589 ns during transient analysis `tran'.
    Found trapezoidal ringing on node mp2.n1.

    tran: time = 3.746 ns    (34.1 %), step = 220 ps          (2 %)

Notice from spectre at time = 3.96589 ns during transient analysis `tran'.
    Found trapezoidal ringing on node mp2.n1.
Notice from spectre at time = 4.18589 ns during transient analysis `tran'.
    Found trapezoidal ringing on node mp2.n1.

    tran: time = 4.186 ns    (38.1 %), step = 220 ps          (2 %)

Notice from spectre at time = 4.40589 ns during transient analysis `tran'.
    Found trapezoidal ringing on node mp2.n1.
Notice from spectre at time = 4.62589 ns during transient analysis `tran'.
    Found trapezoidal ringing on node mp2.n1.
        Further occurrences of this notice will be suppressed.

    tran: time = 4.846 ns    (44.1 %), step = 220 ps          (2 %)
    tran: time = 5.286 ns    (48.1 %), step = 220 ps          (2 %)
    tran: time = 5.946 ns    (54.1 %), step = 220 ps          (2 %)
    tran: time = 6.337 ns    (57.6 %), step = 33.75 ps     (307 m%)
    tran: time = 6.882 ns    (62.6 %), step = 13.07 ps     (119 m%)
    tran: time = 7.632 ns    (69.4 %), step = 220 ps          (2 %)
    tran: time = 8.032 ns      (73 %), step = 194.7 ps     (1.77 %)
    tran: time = 8.607 ns    (78.2 %), step = 192.1 ps     (1.75 %)
    tran: time = 9.267 ns    (84.2 %), step = 220 ps          (2 %)
    tran: time = 9.707 ns    (88.2 %), step = 220 ps          (2 %)
    tran: time = 10.37 ns    (94.2 %), step = 220 ps          (2 %)
    tran: time = 10.81 ns    (98.2 %), step = 220 ps          (2 %)
Number of accepted tran steps =             166

Notice from spectre during transient analysis `tran'.
    Trapezoidal ringing is detected during tran analysis.
        Please use method=trap for better results and performance.


Maximum value achieved for any signal of each quantity: 
V: V(n0) = 1.004 V
I: I(_vVDD:p) = 387 uA
If your circuit contains signals of the same quantity that are vastly different in size (such as high voltage circuitry combined with low voltage control circuitry), you should consider specifying global option `bin_relref=yes'.

~~~~~~~~~~~~~~~~~~~~~~~~~~~~~~~~~
Post-Transient Simulation Summary
~~~~~~~~~~~~~~~~~~~~~~~~~~~~~~~~~
   -   To further speed up simulation, consider
          add ++aps on command line
~~~~~~~~~~~~~~~~~~~~~~~~~~~~~~~~~


During simulation, the CPU load for active processors is :
         0 (3.9 %)       1 (7.1 %)       2 (8.3 %)       3 (4.9 %)
         4 (3.8 %)       5 (2.7 %)       6 (4.4 %)       7 (3.3 %)
         8 (2.8 %)       9 (2.7 %)      10 (9.3 %)      11 (6.1 %)
        12 (21.4 %)     13 (7.7 %)      14 (5.0 %)      15 (8.2 %)
        16 (37.9 %)     17 (1.7 %)      18 (6.1 %)      19 (7.7 %)
        20 (5.0 %)      21 (6.0 %)      22 (6.1 %)      23 (3.3 %)
        24 (1.1 %)      25 (1.1 %)      26 (1.6 %)      27 (6.5 %)
        28 (2.2 %)      29 (1.1 %)      30 (3.9 %)      31 (1.6 %)
        32 (2.7 %)      33 (6.6 %)      34 (6.0 %)      35 (2.2 %)
        36 (5.5 %)      37 (2.2 %)      38 (1.1 %)      40 (2.2 %)
        41 (1.1 %)      42 (3.3 %)      43 (1.6 %)      44 (1.1 %)
        45 (1.1 %)      47 (1.1 %)      49 (7.1 %)      50 (4.9 %)
        51 (1.1 %)      52 (3.3 %)      53 (1.1 %)      58 (2.8 %)
        63 (5.5 %)      
        Total: 262.0%
Initial condition solution time: CPU = 682 us, elapsed = 683.069 us.
Intrinsic tran analysis time:    CPU = 20.235 ms, elapsed = 15.2171 ms.
Total time required for tran analysis `tran': CPU = 22.987 ms, elapsed = 17.9648 ms.
Time accumulated: CPU = 521.854 ms, elapsed = 2.0193 s.
Peak resident memory used = 88.6 Mbytes.


Notice from spectre.
    8 notices suppressed.

finalTimeOP: writing operating point information to rawfile.

Opening the PSF file ../psf/finalTimeOP.info ...
modelParameter: writing model parameter values to rawfile.

Opening the PSF file ../psf/modelParameter.info ...
element: writing instance parameter values to rawfile.

Opening the PSF file ../psf/element.info ...
outputParameter: writing output parameter values to rawfile.

Opening the PSF file ../psf/outputParameter.info ...
designParamVals: writing netlist parameters to rawfile.

Opening the PSFASCII file ../psf/designParamVals.info ...
primitives: writing primitives to rawfile.

Opening the PSFASCII file ../psf/primitives.info.primitives ...
subckts: writing subcircuits to rawfile.

Opening the PSFASCII file ../psf/subckts.info.subckts ...

Spectre received SIGTERM sent from PID: 136589 with UID: 1140.
Process hierarchy of PID 136589 :
    PID        COMMAND
    136589     /cadence/IC618/tools/bin/64bit/cdsServIpc -c 44037 -n 32 -r 0 -x cd /home/ananya22131/Pooja_mam_project2/OR2X4/simulation/OR2X4/spectre/schematic/netlist ; ./runSimulation 
    39576      /cadence/IC618/tools.lnx86/dfII/bin/64bit/virtuoso -ocean 
    39567      csh -c source /cadence/cshrc; ocean 
    92867      python data_gen_skew_opt.py 
    92608      bash 
    142933     /usr/libexec/gnome-terminal-server 

Error found by spectre.
    ERROR (SPECTRE-25): The simulation is stopped either by the user or the farm.


Aggregate audit (1:58:01 PM, Thur Oct 26, 2023):
Time used: CPU = 537 ms, elapsed = 12.3 s, util. = 4.38%.
Time spent in licensing: elapsed = 684 ms, percentage of total = 5.57%.
Peak memory used = 89.6 Mbytes.
Simulation started at: 1:57:48 PM, Thur Oct 26, 2023, ended at: 1:58:01 PM, Thur Oct 26, 2023, with elapsed time (wall clock): 12.3 s.
spectre completes with 1 error, 1 warning, and 12 notices.
spectre terminated prematurely due to fatal error.
