
Spectre (R) Circuit Simulator
Version 19.1.0.396.isr8 64bit -- 19 Jun 2020
Copyright (C) 1989-2020 Cadence Design Systems, Inc. All rights reserved worldwide. Cadence and Spectre are registered trademarks of Cadence Design Systems, Inc. All others are the property of their respective holders.

Includes RSA BSAFE(R) Cryptographic or Security Protocol Software from RSA Security, Inc.

User: ananya22131   Host: edatools-server2   HostID: 7F0100   PID: 66451
Memory  available: 520.8432 MB  physical: 134.6428 GB
Linux   : Red Hat Enterprise Linux Server release 7.9 (Maipo)
CPU Type: Intel(R) Xeon(R) Gold 6226R CPU @ 2.90GHz
        Socket: Processors [Frequency] (Hyperthreaded Processor)
        0:       0 [3599.9] ( 32 ),  1 [3599.9] ( 33 ),  2 [3599.9] ( 34 )
                 3 [3599.9] ( 35 ),  4 [3599.9] ( 36 ),  5 [3599.9] ( 37 )
                 6 [3599.9] ( 38 ),  7 [3599.9] ( 39 ),  8 [3599.9] ( 40 )
                 9 [3599.9] ( 41 ), 10 [3600.0] ( 42 ), 11 [3599.9] ( 43 )
                12 [3599.9] ( 44 ), 13 [3599.9] ( 45 ), 14 [3600.0] ( 46 )
                15 [3563.9] ( 47 )
        1:      16 [3599.9] ( 48 ), 17 [3599.9] ( 49 ), 18 [3599.9] ( 50 )
                19 [3599.9] ( 51 ), 20 [3599.9] ( 52 ), 21 [3599.9] ( 53 )
                22 [3599.9] ( 54 ), 23 [3599.9] ( 55 ), 24 [3599.9] ( 56 )
                25 [3599.9] ( 57 ), 26 [3599.9] ( 58 ), 27 [3599.9] ( 59 )
                28 [3599.9] ( 60 ), 29 [3599.9] ( 61 ), 30 [3599.9] ( 62 )
                31 [3563.8] ( 63 )
        
System load averages (1min, 5min, 15min) : 6.9 %, 8.6 %, 7.8 %
Hyperthreading is enabled
HPC is enabled


Simulating `input.scs' on edatools-server2 at 2:07:58 PM, Thur Oct 26, 2023 (process id: 66451).
Current working directory: /home/ananya22131/Pooja_mam_project2/NOR2X4/simulation/NOR2X4/spectre/schematic/netlist
Command line:
    /cadence/SPECTRE191/tools/bin/spectre -64 input.scs +escchars +log  \
        ../psf/spectre.out +inter=mpsc +mpssession=spectre0_120013_32  \
        -format psfxl -raw ../psf +aps +lqtimeout 900 -maxw 5 -maxn 5  \
        -env ade
spectre pid = 66451

Loading /cadence/SPECTRE191/tools.lnx86/cmi/lib/64bit/5.0/libinfineon_sh.so ...
Loading /cadence/SPECTRE191/tools.lnx86/cmi/lib/64bit/5.0/libphilips_o_sh.so ...
Loading /cadence/SPECTRE191/tools.lnx86/cmi/lib/64bit/5.0/libphilips_sh.so ...
Loading /cadence/SPECTRE191/tools.lnx86/cmi/lib/64bit/5.0/libsparam_sh.so ...
Loading /cadence/SPECTRE191/tools.lnx86/cmi/lib/64bit/5.0/libstmodels_sh.so ...
Reading file:  /home/ananya22131/Pooja_mam_project2/NOR2X4/simulation/NOR2X4/spectre/schematic/netlist/input.scs
Reading file:  /cadence/SPECTRE191/tools.lnx86/spectre/etc/configs/spectre.cfg
Reading file:  /cadence/FOUNDRY/analog/45nm/models/spectre/gpdk045.scs
Reading file:  /cadence/FOUNDRY/analog/45nm/models/spectre/gpdk045_mos.scs
Reading file:  /cadence/FOUNDRY/analog/45nm/models/spectre/gpdk045_diode.scs
Reading file:  /cadence/FOUNDRY/analog/45nm/models/spectre/gpdk045_bipolar.scs
Reading file:  /cadence/FOUNDRY/analog/45nm/models/spectre/gpdk045_mimcap.scs
Reading file:  /cadence/FOUNDRY/analog/45nm/models/spectre/gpdk045_moscap.scs
Reading file:  /cadence/FOUNDRY/analog/45nm/models/spectre/gpdk045_resistor.scs
Reading file:  /cadence/FOUNDRY/analog/45nm/models/spectre/gpdk045_inductor.scs
Reading file:  /cadence/FOUNDRY/analog/45nm/models/spectre/gpdk045_soa.scs
Reading file:  /home/ananya22131/Pooja_mam_project2/NOR2X4/simulation/NOR2X4/spectre/schematic/netlist/_graphical_stimuli_1.scs
Time for NDB Parsing: CPU = 736.78 ms, elapsed = 2.58013 s.
Time accumulated: CPU = 831.758 ms, elapsed = 2.58014 s.
Peak resident memory used = 72.3 Mbytes.

Reading link:  /cadence/SPECTRE191/tools.lnx86/spectre/etc/ahdl/discipline.h
Reading file:  /cadence/SPECTRE191/tools.lnx86/spectre/etc/ahdl/disciplines.vams
Reading link:  /cadence/SPECTRE191/tools.lnx86/spectre/etc/ahdl/constants.h
Reading file:  /cadence/SPECTRE191/tools.lnx86/spectre/etc/ahdl/constants.vams
Existing shared object for module bsource_2b273e is up to date.
Installed compiled interface for bsource_2b273e.
Time for Elaboration: CPU = 24.583 ms, elapsed = 28.5871 ms.
Time accumulated: CPU = 856.445 ms, elapsed = 2.60883 s.
Peak resident memory used = 81.8 Mbytes.


Warning from spectre during hierarchy flattening.
    WARNING (SPECTRE-17101): The value 'psf' specified for the 'checklimitdest' option will no longer be supported in future releases. Use 'spectre -h' to see other recommended values for the 'checklimitdest' option.


Time for EDB Visiting: CPU = 973 us, elapsed = 972.986 us.
Time accumulated: CPU = 857.521 ms, elapsed = 2.6099 s.
Peak resident memory used = 82.8 Mbytes.


Notice from spectre during initial setup.
    Multithreading is disabled due to the size of the design being too small.


Global user options:
         psfversion = 1.4.0
            vabstol = 1e-06
            iabstol = 1e-12
               temp = 25
               gmin = 1e-12
             rforce = 1
           maxnotes = 5
           maxwarns = 5
             digits = 5
               cols = 80
             pivrel = 0.001
           sensfile = ../psf/sens.output
     checklimitdest = psf
               save = allpub
           currents = all
             reltol = 0.001
               tnom = 27
             scalem = 1
              scale = 1

Scoped user options:

Circuit inventory:
              nodes 10
              bsim4 4     
     bsource_2b273e 4     
          capacitor 1     
            vsource 4     

Analysis and control statement inventory:
               info 7     
               tran 1     

Output statements:
             .probe 0     
           .measure 0     
               save 0     


Notice from spectre during initial setup.
    1 vsources are short because their absolute value is less than or equal to 'vabsshort'.
    APS Enabled.

Time for parsing: CPU = 3.589 ms, elapsed = 4.72212 ms.
Time accumulated: CPU = 861.189 ms, elapsed = 2.6147 s.
Peak resident memory used = 84.4 Mbytes.

~~~~~~~~~~~~~~~~~~~~~~
Pre-Simulation Summary
~~~~~~~~~~~~~~~~~~~~~~
~~~~~~~~~~~~~~~~~~~~~~
Entering remote command mode using MPSC service (spectre, ipi, v0.0, spectre0_120013_32, ).

************************************************
Transient Analysis `tran': time = (0 s -> 11 ns)
************************************************
DC simulation time: CPU = 492 us, elapsed = 493.05 us.

Opening the PSFXL file ../psf/tran.tran.tran ...
Important parameter values:
    start = 0 s
    outputstart = 0 s
    stop = 11 ns
    step = 100 ps
    maxstep = 220 ps
    ic = all
    useprevic = no
    skipdc = no
    reltol = 1e-03
    abstol(V) = 1 uV
    abstol(I) = 1 pA
    temp = 25 C
    tnom = 27 C
    tempeffects = all
    errpreset = moderate
    method = traponly
    lteratio = 3.5
    relref = sigglobal
    cmin = 0 F
    gmin = 1 pS
    rabsshort = 1 mOhm


Notice from spectre during transient analysis `tran'.
    Multithreading is disabled due to the size of the design being too small.


Output and IC/nodeset summary:
                 save   28      (current)
                 save   9       (voltage)

    tran: time = 300 ps      (2.73 %), step = 200 ps       (1.82 %)
    tran: time = 870 ps      (7.91 %), step = 130 ps       (1.18 %)
    tran: time = 1.462 ns    (13.3 %), step = 93.02 ps     (846 m%)
    tran: time = 1.97 ns     (17.9 %), step = 82.2 ps      (747 m%)
    tran: time = 2.524 ns    (22.9 %), step = 116.2 ps     (1.06 %)

Notice from spectre at time = 2.90322 ns during transient analysis `tran'.
    Found trapezoidal ringing on node _vB:p.
Notice from spectre at time = 3.12322 ns during transient analysis `tran'.
    Found trapezoidal ringing on node _vB:p.

    tran: time = 3.123 ns    (28.4 %), step = 220 ps          (2 %)

Notice from spectre at time = 3.34322 ns during transient analysis `tran'.
    Found trapezoidal ringing on node _vB:p.
Notice from spectre at time = 3.56322 ns during transient analysis `tran'.
    Found trapezoidal ringing on node _vB:p.
Notice from spectre at time = 3.78322 ns during transient analysis `tran'.
    Found trapezoidal ringing on node _vB:p.
        Further occurrences of this notice will be suppressed.

    tran: time = 3.783 ns    (34.4 %), step = 220 ps          (2 %)
    tran: time = 4.223 ns    (38.4 %), step = 220 ps          (2 %)
    tran: time = 4.883 ns    (44.4 %), step = 220 ps          (2 %)
    tran: time = 5.323 ns    (48.4 %), step = 220 ps          (2 %)
    tran: time = 5.983 ns    (54.4 %), step = 220 ps          (2 %)
    tran: time = 6.358 ns    (57.8 %), step = 42.16 ps     (383 m%)
    tran: time = 6.97 ns     (63.4 %), step = 128.6 ps     (1.17 %)
    tran: time = 7.455 ns    (67.8 %), step = 72.02 ps     (655 m%)
    tran: time = 8.039 ns    (73.1 %), step = 220 ps          (2 %)
    tran: time = 8.699 ns    (79.1 %), step = 220 ps          (2 %)
    tran: time = 9.139 ns    (83.1 %), step = 220 ps          (2 %)
    tran: time = 9.799 ns    (89.1 %), step = 220 ps          (2 %)
    tran: time = 10.24 ns    (93.1 %), step = 220 ps          (2 %)
    tran: time = 10.84 ns    (98.5 %), step = 160.6 ps     (1.46 %)
Number of accepted tran steps =             140

Notice from spectre during transient analysis `tran'.
    Trapezoidal ringing is detected during tran analysis.
        Please use method=trap for better results and performance.


Maximum value achieved for any signal of each quantity: 
V: V(net33) = 1.002 V
I: I(_vVDD:p) = 190.6 uA
If your circuit contains signals of the same quantity that are vastly different in size (such as high voltage circuitry combined with low voltage control circuitry), you should consider specifying global option `bin_relref=yes'.

~~~~~~~~~~~~~~~~~~~~~~~~~~~~~~~~~
Post-Transient Simulation Summary
~~~~~~~~~~~~~~~~~~~~~~~~~~~~~~~~~
   -   To further speed up simulation, consider
          add ++aps on command line
~~~~~~~~~~~~~~~~~~~~~~~~~~~~~~~~~


During simulation, the CPU load for active processors is :
         0 (7.6 %)       1 (2.8 %)       2 (7.5 %)       3 (4.8 %)
         4 (38.8 %)      5 (4.1 %)       6 (6.2 %)       7 (4.1 %)
         8 (6.9 %)       9 (4.8 %)      10 (7.5 %)      11 (1.4 %)
        12 (5.5 %)      13 (3.4 %)      14 (4.1 %)      15 (2.7 %)
        16 (6.2 %)      17 (2.0 %)      18 (1.4 %)      19 (2.7 %)
        20 (4.8 %)      21 (2.1 %)      22 (9.6 %)      23 (2.1 %)
        24 (2.8 %)      25 (26.7 %)     26 (17.2 %)     27 (8.2 %)
        28 (2.7 %)      29 (2.1 %)      30 (3.4 %)      31 (4.8 %)
        32 (1.4 %)      33 (4.8 %)      34 (1.4 %)      35 (10.3 %)
        36 (6.9 %)      37 (3.4 %)      38 (1.4 %)      39 (1.4 %)
        40 (1.4 %)      43 (1.4 %)      44 (2.7 %)      46 (2.1 %)
        49 (4.1 %)      50 (1.4 %)      53 (1.4 %)      55 (1.4 %)
        61 (2.0 %)      
        Total: 263.7%
Initial condition solution time: CPU = 544 us, elapsed = 546.217 us.
Intrinsic tran analysis time:    CPU = 17.877 ms, elapsed = 11.879 ms.
Total time required for tran analysis `tran': CPU = 20.284 ms, elapsed = 14.282 ms.
Time accumulated: CPU = 887.969 ms, elapsed = 2.98555 s.
Peak resident memory used = 88.4 Mbytes.


Notice from spectre.
    25 notices suppressed.

finalTimeOP: writing operating point information to rawfile.

Opening the PSF file ../psf/finalTimeOP.info ...
modelParameter: writing model parameter values to rawfile.

Opening the PSF file ../psf/modelParameter.info ...
element: writing instance parameter values to rawfile.

Opening the PSF file ../psf/element.info ...
outputParameter: writing output parameter values to rawfile.

Opening the PSF file ../psf/outputParameter.info ...
designParamVals: writing netlist parameters to rawfile.

Opening the PSFASCII file ../psf/designParamVals.info ...
primitives: writing primitives to rawfile.

Opening the PSFASCII file ../psf/primitives.info.primitives ...
subckts: writing subcircuits to rawfile.

Opening the PSFASCII file ../psf/subckts.info.subckts ...

Spectre received SIGTERM sent from PID: 65838 with UID: 1140.
Process hierarchy of PID 65838 :
    PID        COMMAND
    65838      /cadence/IC618/tools/bin/64bit/cdsServIpc -c 57713 -n 45 -r 0 -x cd /home/ananya22131/Pooja_mam_project2/NOR2X4/simulation/NOR2X4/spectre/schematic/netlist ; ./runSimulation 
    120013     /cadence/IC618/tools.lnx86/dfII/bin/64bit/virtuoso -ocean 
    119919     csh -c source /cadence/cshrc; ocean 
    162423     python data_gen_skew_opt.py 
    162356     bash 
    142933     /usr/libexec/gnome-terminal-server 

Error found by spectre.
    ERROR (SPECTRE-25): The simulation is stopped either by the user or the farm.


Aggregate audit (2:08:11 PM, Thur Oct 26, 2023):
Time used: CPU = 902 ms, elapsed = 12.9 s, util. = 7%.
Time spent in licensing: elapsed = 697 ms, percentage of total = 5.41%.
Peak memory used = 89.5 Mbytes.
Simulation started at: 2:07:58 PM, Thur Oct 26, 2023, ended at: 2:08:11 PM, Thur Oct 26, 2023, with elapsed time (wall clock): 12.9 s.
spectre completes with 1 error, 1 warning, and 12 notices.
spectre terminated prematurely due to fatal error.
