
Spectre (R) Circuit Simulator
Version 19.1.0.396.isr8 64bit -- 19 Jun 2020
Copyright (C) 1989-2020 Cadence Design Systems, Inc. All rights reserved worldwide. Cadence and Spectre are registered trademarks of Cadence Design Systems, Inc. All others are the property of their respective holders.

Includes RSA BSAFE(R) Cryptographic or Security Protocol Software from RSA Security, Inc.

User: ananya22131   Host: edatools-server2   HostID: 7F0100   PID: 87059
Memory  available: 845.0334 MB  physical: 134.6428 GB
Linux   : Red Hat Enterprise Linux Server release 7.9 (Maipo)
CPU Type: Intel(R) Xeon(R) Gold 6226R CPU @ 2.90GHz
        Socket: Processors [Frequency] (Hyperthreaded Processor)
        0:       0 [3191.2] ( 32 ),  1 [3274.4] ( 33 ),  2 [3187.5] ( 34 )
                 3 [3252.8] ( 35 ),  4 [3599.9] ( 36 ),  5 [3141.6] ( 37 )
                 6 [3539.5] ( 38 ),  7 [3120.4] ( 39 ),  8 [3361.3] ( 40 )
                 9 [3488.4] ( 41 ), 10 [3151.0] ( 42 ), 11 [3137.9] ( 43 )
                12 [3135.4] ( 44 ), 13 [3138.1] ( 45 ), 14 [3137.2] ( 46 )
                15 [3330.5] ( 47 )
        1:      16 [3554.7] ( 48 ), 17 [3599.5] ( 49 ), 18 [3599.9] ( 50 )
                19 [3599.9] ( 51 ), 20 [3599.9] ( 52 ), 21 [3599.9] ( 53 )
                22 [3599.9] ( 54 ), 23 [3214.0] ( 55 ), 24 [3551.0] ( 56 )
                25 [3599.9] ( 57 ), 26 [3599.9] ( 58 ), 27 [3584.1] ( 59 )
                28 [3528.5] ( 60 ), 29 [3599.9] ( 61 ), 30 [3498.8] ( 62 )
                31 [3571.4] ( 63 )
        
System load averages (1min, 5min, 15min) : 5.0 %, 5.6 %, 5.2 %
Hyperthreading is enabled
HPC is enabled


Simulating `input.scs' on edatools-server2 at 1:51:39 AM, Thur Oct 26, 2023 (process id: 87059).
Current working directory: /home/ananya22131/Pooja_mam_project2/AND2X8/simulation/AND2X8/spectre/schematic/netlist
Command line:
    /cadence/SPECTRE191/tools/bin/spectre -64 input.scs +escchars +log  \
        ../psf/spectre.out +inter=mpsc +mpssession=spectre0_4584_14  \
        -format psfxl -raw ../psf +aps +lqtimeout 900 -maxw 5 -maxn 5  \
        -env ade
spectre pid = 87059

Loading /cadence/SPECTRE191/tools.lnx86/cmi/lib/64bit/5.0/libinfineon_sh.so ...
Loading /cadence/SPECTRE191/tools.lnx86/cmi/lib/64bit/5.0/libphilips_o_sh.so ...
Loading /cadence/SPECTRE191/tools.lnx86/cmi/lib/64bit/5.0/libphilips_sh.so ...
Loading /cadence/SPECTRE191/tools.lnx86/cmi/lib/64bit/5.0/libsparam_sh.so ...
Loading /cadence/SPECTRE191/tools.lnx86/cmi/lib/64bit/5.0/libstmodels_sh.so ...
Reading file:  /home/ananya22131/Pooja_mam_project2/AND2X8/simulation/AND2X8/spectre/schematic/netlist/input.scs
Reading file:  /cadence/SPECTRE191/tools.lnx86/spectre/etc/configs/spectre.cfg
Reading file:  /cadence/FOUNDRY/analog/45nm/models/spectre/gpdk045.scs
Reading file:  /cadence/FOUNDRY/analog/45nm/models/spectre/gpdk045_mos.scs
Reading file:  /cadence/FOUNDRY/analog/45nm/models/spectre/gpdk045_diode.scs
Reading file:  /cadence/FOUNDRY/analog/45nm/models/spectre/gpdk045_bipolar.scs
Reading file:  /cadence/FOUNDRY/analog/45nm/models/spectre/gpdk045_mimcap.scs
Reading file:  /cadence/FOUNDRY/analog/45nm/models/spectre/gpdk045_moscap.scs
Reading file:  /cadence/FOUNDRY/analog/45nm/models/spectre/gpdk045_resistor.scs
Reading file:  /cadence/FOUNDRY/analog/45nm/models/spectre/gpdk045_inductor.scs
Reading file:  /cadence/FOUNDRY/analog/45nm/models/spectre/gpdk045_soa.scs
Reading file:  /home/ananya22131/Pooja_mam_project2/AND2X8/simulation/AND2X8/spectre/schematic/netlist/_graphical_stimuli_1.scs
Time for NDB Parsing: CPU = 356.823 ms, elapsed = 1.20353 s.
Time accumulated: CPU = 445.496 ms, elapsed = 1.20354 s.
Peak resident memory used = 72.3 Mbytes.

Reading link:  /cadence/SPECTRE191/tools.lnx86/spectre/etc/ahdl/discipline.h
Reading file:  /cadence/SPECTRE191/tools.lnx86/spectre/etc/ahdl/disciplines.vams
Reading link:  /cadence/SPECTRE191/tools.lnx86/spectre/etc/ahdl/constants.h
Reading file:  /cadence/SPECTRE191/tools.lnx86/spectre/etc/ahdl/constants.vams
Existing shared object for module bsource_2b273e is up to date.
Installed compiled interface for bsource_2b273e.
Time for Elaboration: CPU = 23.575 ms, elapsed = 23.5758 ms.
Time accumulated: CPU = 469.181 ms, elapsed = 1.22722 s.
Peak resident memory used = 81.9 Mbytes.


Warning from spectre during hierarchy flattening.
    WARNING (SPECTRE-17101): The value 'psf' specified for the 'checklimitdest' option will no longer be supported in future releases. Use 'spectre -h' to see other recommended values for the 'checklimitdest' option.


Time for EDB Visiting: CPU = 1.219 ms, elapsed = 1.21999 ms.
Time accumulated: CPU = 470.5 ms, elapsed = 1.22854 s.
Peak resident memory used = 82.9 Mbytes.


Notice from spectre during initial setup.
    Multithreading is disabled due to the size of the design being too small.


Global user options:
         psfversion = 1.4.0
            vabstol = 1e-06
            iabstol = 1e-12
               temp = 25
               gmin = 1e-12
             rforce = 1
           maxnotes = 5
           maxwarns = 5
             digits = 5
               cols = 80
             pivrel = 0.001
           sensfile = ../psf/sens.output
     checklimitdest = psf
               save = allpub
           currents = all
             reltol = 0.001
               tnom = 27
             scalem = 1
              scale = 1

Scoped user options:

Circuit inventory:
              nodes 13
              bsim4 6     
     bsource_2b273e 6     
          capacitor 1     
            vsource 4     

Analysis and control statement inventory:
               info 7     
               tran 1     

Output statements:
             .probe 0     
           .measure 0     
               save 0     


Notice from spectre during initial setup.
    1 vsources are short because their absolute value is less than or equal to 'vabsshort'.
    APS Enabled.

Time for parsing: CPU = 2.839 ms, elapsed = 3.81017 ms.
Time accumulated: CPU = 473.426 ms, elapsed = 1.23244 s.
Peak resident memory used = 84.5 Mbytes.

~~~~~~~~~~~~~~~~~~~~~~
Pre-Simulation Summary
~~~~~~~~~~~~~~~~~~~~~~
~~~~~~~~~~~~~~~~~~~~~~
Entering remote command mode using MPSC service (spectre, ipi, v0.0, spectre0_4584_14, ).

************************************************
Transient Analysis `tran': time = (0 s -> 11 ns)
************************************************

Notice from spectre during IC analysis, during transient analysis `tran'.
    GminDC = 1 pS is large enough to noticeably affect the DC solution.
        dV(net24) = 18.5596 mV
        Use the `gmin_check' option to eliminate or expand this report.

DC simulation time: CPU = 634 us, elapsed = 634.909 us.

Opening the PSFXL file ../psf/tran.tran.tran ...
Important parameter values:
    start = 0 s
    outputstart = 0 s
    stop = 11 ns
    step = 100 ps
    maxstep = 220 ps
    ic = all
    useprevic = no
    skipdc = no
    reltol = 1e-03
    abstol(V) = 1 uV
    abstol(I) = 1 pA
    temp = 25 C
    tnom = 27 C
    tempeffects = all
    errpreset = moderate
    method = traponly
    lteratio = 3.5
    relref = sigglobal
    cmin = 0 F
    gmin = 1 pS
    rabsshort = 1 mOhm


Notice from spectre during transient analysis `tran'.
    Multithreading is disabled due to the size of the design being too small.


Output and IC/nodeset summary:
                 save   40      (current)
                 save   12      (voltage)

    tran: time = 300 ps      (2.73 %), step = 200 ps       (1.82 %)
    tran: time = 870 ps      (7.91 %), step = 130 ps       (1.18 %)
    tran: time = 1.381 ns    (12.6 %), step = 33.94 ps     (309 m%)
    tran: time = 1.927 ns    (17.5 %), step = 100.8 ps     (916 m%)
    tran: time = 2.583 ns    (23.5 %), step = 141.9 ps     (1.29 %)
    tran: time = 3.228 ns    (29.3 %), step = 220 ps          (2 %)
    tran: time = 3.668 ns    (33.3 %), step = 220 ps          (2 %)

Notice from spectre at time = 3.88785 ns during transient analysis `tran'.
    Found trapezoidal ringing on node net23.
Notice from spectre at time = 4.10785 ns during transient analysis `tran'.
    Found trapezoidal ringing on node net23.
Notice from spectre at time = 4.32785 ns during transient analysis `tran'.
    Found trapezoidal ringing on node net23.

    tran: time = 4.328 ns    (39.3 %), step = 220 ps          (2 %)

Notice from spectre at time = 4.54785 ns during transient analysis `tran'.
    Found trapezoidal ringing on node net23.
Notice from spectre at time = 4.76785 ns during transient analysis `tran'.
    Found trapezoidal ringing on node net23.
        Further occurrences of this notice will be suppressed.

    tran: time = 4.768 ns    (43.3 %), step = 220 ps          (2 %)
    tran: time = 5.428 ns    (49.3 %), step = 220 ps          (2 %)
    tran: time = 5.868 ns    (53.3 %), step = 220 ps          (2 %)
    tran: time = 6.335 ns    (57.6 %), step = 30.04 ps     (273 m%)
    tran: time = 6.882 ns    (62.6 %), step = 11.78 ps     (107 m%)
    tran: time = 7.435 ns    (67.6 %), step = 103.7 ps     (943 m%)
    tran: time = 7.987 ns    (72.6 %), step = 220 ps          (2 %)
    tran: time = 8.647 ns    (78.6 %), step = 220 ps          (2 %)
    tran: time = 9.087 ns    (82.6 %), step = 220 ps          (2 %)
    tran: time = 9.747 ns    (88.6 %), step = 220 ps          (2 %)
    tran: time = 10.19 ns    (92.6 %), step = 220 ps          (2 %)
    tran: time = 10.85 ns    (98.6 %), step = 220 ps          (2 %)
Number of accepted tran steps =             164

Notice from spectre during transient analysis `tran'.
    Trapezoidal ringing is detected during tran analysis.
        Please use method=trap for better results and performance.


Maximum value achieved for any signal of each quantity: 
V: V(net23) = 1.007 V
I: I(_vVDD:p) = 731.1 uA
If your circuit contains signals of the same quantity that are vastly different in size (such as high voltage circuitry combined with low voltage control circuitry), you should consider specifying global option `bin_relref=yes'.

~~~~~~~~~~~~~~~~~~~~~~~~~~~~~~~~~
Post-Transient Simulation Summary
~~~~~~~~~~~~~~~~~~~~~~~~~~~~~~~~~
   -   To further speed up simulation, consider
          add ++aps on command line
~~~~~~~~~~~~~~~~~~~~~~~~~~~~~~~~~


During simulation, the CPU load for active processors is :
         0 (2.8 %)       1 (4.9 %)       2 (4.9 %)       3 (4.3 %)
         4 (4.9 %)       5 (4.4 %)       6 (2.8 %)       7 (3.3 %)
         8 (3.3 %)       9 (4.4 %)      10 (3.3 %)      11 (3.3 %)
        12 (4.4 %)      13 (5.5 %)      14 (4.9 %)      15 (4.4 %)
        16 (19.0 %)     17 (2.2 %)      18 (5.4 %)      19 (3.9 %)
        20 (3.8 %)      21 (4.4 %)      22 (6.0 %)      23 (4.4 %)
        24 (4.9 %)      25 (4.9 %)      26 (4.9 %)      27 (1.1 %)
        28 (1.1 %)      29 (1.7 %)      30 (2.2 %)      31 (1.1 %)
        32 (7.1 %)      33 (10.4 %)     34 (2.7 %)      35 (1.1 %)
        36 (21.9 %)     37 (24.5 %)     38 (1.1 %)      39 (3.3 %)
        42 (1.1 %)      44 (2.2 %)      45 (1.1 %)      49 (9.8 %)
        50 (6.0 %)      51 (1.6 %)      52 (9.2 %)      53 (3.8 %)
        54 (2.7 %)      55 (2.7 %)      57 (1.6 %)      58 (1.6 %)
        59 (3.3 %)      61 (2.7 %)      63 (1.1 %)      
        Total: 260.8%
Initial condition solution time: CPU = 675 us, elapsed = 675.201 us.
Intrinsic tran analysis time:    CPU = 19.288 ms, elapsed = 14.873 ms.
Total time required for tran analysis `tran': CPU = 21.75 ms, elapsed = 17.3302 ms.
Time accumulated: CPU = 501.864 ms, elapsed = 2.02133 s.
Peak resident memory used = 88.6 Mbytes.


Notice from spectre.
    8 notices suppressed.

finalTimeOP: writing operating point information to rawfile.

Opening the PSF file ../psf/finalTimeOP.info ...
modelParameter: writing model parameter values to rawfile.

Opening the PSF file ../psf/modelParameter.info ...
element: writing instance parameter values to rawfile.

Opening the PSF file ../psf/element.info ...
outputParameter: writing output parameter values to rawfile.

Opening the PSF file ../psf/outputParameter.info ...
designParamVals: writing netlist parameters to rawfile.

Opening the PSFASCII file ../psf/designParamVals.info ...
primitives: writing primitives to rawfile.

Opening the PSFASCII file ../psf/primitives.info.primitives ...
subckts: writing subcircuits to rawfile.

Opening the PSFASCII file ../psf/subckts.info.subckts ...

Spectre received SIGTERM sent from PID: 86887 with UID: 1140.
Process hierarchy of PID 86887 :
    PID        COMMAND
    86887      /cadence/IC618/tools/bin/64bit/cdsServIpc -c 34328 -n 27 -r 0 -x cd /home/ananya22131/Pooja_mam_project2/AND2X8/simulation/AND2X8/spectre/schematic/netlist ; ./runSimulation 
    4584       /cadence/IC618/tools.lnx86/dfII/bin/64bit/virtuoso -ocean 
    4531       csh -c source /cadence/cshrc; ocean 
    111398     python data_gen_skew_opt.py 
    111329     bash 
    142933     /usr/libexec/gnome-terminal-server 

Error found by spectre.
    ERROR (SPECTRE-25): The simulation is stopped either by the user or the farm.


Aggregate audit (1:51:51 AM, Thur Oct 26, 2023):
Time used: CPU = 520 ms, elapsed = 12 s, util. = 4.33%.
Time spent in licensing: elapsed = 685 ms, percentage of total = 5.69%.
Peak memory used = 89.7 Mbytes.
Simulation started at: 1:51:39 AM, Thur Oct 26, 2023, ended at: 1:51:51 AM, Thur Oct 26, 2023, with elapsed time (wall clock): 12 s.
spectre completes with 1 error, 1 warning, and 13 notices.
spectre terminated prematurely due to fatal error.
