Spectre (R) Circuit Simulator
Version 19.1.0.396.isr8 64bit -- 19 Jun 2020
Simulating `input.scs' on edatools-server2 at 1:57:48 PM, Thur Oct 26, 2023 (process id: 136664).
H = mpsImport( "spectre" "ipi" "v0.0" ?session "spectre0_39576_19" )
H->sclSetResultDir( "../psf" )
H->sclRun( "all" )
H->sclEcho( "@-@" )
