
Spectre (R) Circuit Simulator
Version 19.1.0.396.isr8 64bit -- 19 Jun 2020
Copyright (C) 1989-2020 Cadence Design Systems, Inc. All rights reserved worldwide. Cadence and Spectre are registered trademarks of Cadence Design Systems, Inc. All others are the property of their respective holders.

Includes RSA BSAFE(R) Cryptographic or Security Protocol Software from RSA Security, Inc.

User: ananya22131   Host: edatools-server2   HostID: 7F0100   PID: 12124
Memory  available: 510.8449 MB  physical: 134.6428 GB
Linux   : Red Hat Enterprise Linux Server release 7.9 (Maipo)
CPU Type: Intel(R) Xeon(R) Gold 6226R CPU @ 2.90GHz
        Socket: Processors [Frequency] (Hyperthreaded Processor)
        0:       0 [3599.9] ( 32 ),  1 [3599.9] ( 33 ),  2 [3600.0] ( 34 )
                 3 [3599.9] ( 35 ),  4 [3599.9] ( 36 ),  5 [3600.0] ( 37 )
                 6 [3563.4] ( 38 ),  7 [3422.0] ( 39 ),  8 [3415.6] ( 40 )
                 9 [3390.8] ( 41 ), 10 [3598.4] ( 42 ), 11 [3560.4] ( 43 )
                12 [3599.9] ( 44 ), 13 [3489.4] ( 45 ), 14 [3534.0] ( 46 )
                15 [3437.7] ( 47 )
        1:      16 [3518.4] ( 48 ), 17 [3599.7] ( 49 ), 18 [3599.9] ( 50 )
                19 [3599.9] ( 51 ), 20 [3538.8] ( 52 ), 21 [3405.9] ( 53 )
                22 [3525.9] ( 54 ), 23 [3518.8] ( 55 ), 24 [3217.5] ( 56 )
                25 [3437.2] ( 57 ), 26 [3399.5] ( 58 ), 27 [3308.3] ( 59 )
                28 [3600.0] ( 60 ), 29 [3485.0] ( 61 ), 30 [3599.9] ( 62 )
                31 [3600.0] ( 63 )
        
System load averages (1min, 5min, 15min) : 7.2 %, 7.3 %, 7.0 %
Hyperthreading is enabled
HPC is enabled


Simulating `input.scs' on edatools-server2 at 1:53:16 PM, Thur Oct 26, 2023 (process id: 12124).
Current working directory: /home/ananya22131/Pooja_mam_project2/OR2X8/simulation/OR2X8/spectre/schematic/netlist
Command line:
    /cadence/SPECTRE191/tools/bin/spectre -64 input.scs +escchars +log  \
        ../psf/spectre.out +inter=mpsc +mpssession=spectre0_95553_15  \
        -format psfxl -raw ../psf +aps +lqtimeout 900 -maxw 5 -maxn 5  \
        -env ade
spectre pid = 12124

Loading /cadence/SPECTRE191/tools.lnx86/cmi/lib/64bit/5.0/libinfineon_sh.so ...
Loading /cadence/SPECTRE191/tools.lnx86/cmi/lib/64bit/5.0/libphilips_o_sh.so ...
Loading /cadence/SPECTRE191/tools.lnx86/cmi/lib/64bit/5.0/libphilips_sh.so ...
Loading /cadence/SPECTRE191/tools.lnx86/cmi/lib/64bit/5.0/libsparam_sh.so ...
Loading /cadence/SPECTRE191/tools.lnx86/cmi/lib/64bit/5.0/libstmodels_sh.so ...
Reading file:  /home/ananya22131/Pooja_mam_project2/OR2X8/simulation/OR2X8/spectre/schematic/netlist/input.scs
Reading file:  /cadence/SPECTRE191/tools.lnx86/spectre/etc/configs/spectre.cfg
Reading file:  /cadence/FOUNDRY/analog/45nm/models/spectre/gpdk045.scs
Reading file:  /cadence/FOUNDRY/analog/45nm/models/spectre/gpdk045_mos.scs
Reading file:  /cadence/FOUNDRY/analog/45nm/models/spectre/gpdk045_diode.scs
Reading file:  /cadence/FOUNDRY/analog/45nm/models/spectre/gpdk045_bipolar.scs
Reading file:  /cadence/FOUNDRY/analog/45nm/models/spectre/gpdk045_mimcap.scs
Reading file:  /cadence/FOUNDRY/analog/45nm/models/spectre/gpdk045_moscap.scs
Reading file:  /cadence/FOUNDRY/analog/45nm/models/spectre/gpdk045_resistor.scs
Reading file:  /cadence/FOUNDRY/analog/45nm/models/spectre/gpdk045_inductor.scs
Reading file:  /cadence/FOUNDRY/analog/45nm/models/spectre/gpdk045_soa.scs
Reading file:  /home/ananya22131/Pooja_mam_project2/OR2X8/simulation/OR2X8/spectre/schematic/netlist/_graphical_stimuli_1.scs
Time for NDB Parsing: CPU = 373.533 ms, elapsed = 1.2261 s.
Time accumulated: CPU = 463.31 ms, elapsed = 1.2261 s.
Peak resident memory used = 72.3 Mbytes.

Reading link:  /cadence/SPECTRE191/tools.lnx86/spectre/etc/ahdl/discipline.h
Reading file:  /cadence/SPECTRE191/tools.lnx86/spectre/etc/ahdl/disciplines.vams
Reading link:  /cadence/SPECTRE191/tools.lnx86/spectre/etc/ahdl/constants.h
Reading file:  /cadence/SPECTRE191/tools.lnx86/spectre/etc/ahdl/constants.vams
Existing shared object for module bsource_2b273e is up to date.
Installed compiled interface for bsource_2b273e.
Time for Elaboration: CPU = 28.027 ms, elapsed = 33.016 ms.
Time accumulated: CPU = 491.444 ms, elapsed = 1.25923 s.
Peak resident memory used = 81.9 Mbytes.


Warning from spectre during hierarchy flattening.
    WARNING (SPECTRE-17101): The value 'psf' specified for the 'checklimitdest' option will no longer be supported in future releases. Use 'spectre -h' to see other recommended values for the 'checklimitdest' option.


Time for EDB Visiting: CPU = 1.245 ms, elapsed = 1.24598 ms.
Time accumulated: CPU = 492.797 ms, elapsed = 1.26058 s.
Peak resident memory used = 82.9 Mbytes.


Notice from spectre during initial setup.
    Multithreading is disabled due to the size of the design being too small.


Global user options:
         psfversion = 1.4.0
            vabstol = 1e-06
            iabstol = 1e-12
               temp = 25
               gmin = 1e-12
             rforce = 1
           maxnotes = 5
           maxwarns = 5
             digits = 5
               cols = 80
             pivrel = 0.001
           sensfile = ../psf/sens.output
     checklimitdest = psf
               save = allpub
           currents = all
             reltol = 0.001
               tnom = 27
             scalem = 1
              scale = 1

Scoped user options:

Circuit inventory:
              nodes 13
              bsim4 6     
     bsource_2b273e 6     
          capacitor 1     
            vsource 4     

Analysis and control statement inventory:
               info 7     
               tran 1     

Output statements:
             .probe 0     
           .measure 0     
               save 0     


Notice from spectre during initial setup.
    1 vsources are short because their absolute value is less than or equal to 'vabsshort'.
    APS Enabled.

Time for parsing: CPU = 2.966 ms, elapsed = 5.13887 ms.
Time accumulated: CPU = 495.871 ms, elapsed = 1.26582 s.
Peak resident memory used = 84.5 Mbytes.

~~~~~~~~~~~~~~~~~~~~~~
Pre-Simulation Summary
~~~~~~~~~~~~~~~~~~~~~~
~~~~~~~~~~~~~~~~~~~~~~
Entering remote command mode using MPSC service (spectre, ipi, v0.0, spectre0_95553_15, ).

************************************************
Transient Analysis `tran': time = (0 s -> 11 ns)
************************************************
DC simulation time: CPU = 586 us, elapsed = 588.179 us.

Opening the PSFXL file ../psf/tran.tran.tran ...
Important parameter values:
    start = 0 s
    outputstart = 0 s
    stop = 11 ns
    step = 100 ps
    maxstep = 220 ps
    ic = all
    useprevic = no
    skipdc = no
    reltol = 1e-03
    abstol(V) = 1 uV
    abstol(I) = 1 pA
    temp = 25 C
    tnom = 27 C
    tempeffects = all
    errpreset = moderate
    method = traponly
    lteratio = 3.5
    relref = sigglobal
    cmin = 0 F
    gmin = 1 pS
    rabsshort = 1 mOhm


Notice from spectre during transient analysis `tran'.
    Multithreading is disabled due to the size of the design being too small.


Output and IC/nodeset summary:
                 save   40      (current)
                 save   12      (voltage)

    tran: time = 300 ps      (2.73 %), step = 200 ps       (1.82 %)
    tran: time = 870 ps      (7.91 %), step = 130 ps       (1.18 %)
    tran: time = 1.4 ns      (12.7 %), step = 27.32 ps     (248 m%)
    tran: time = 1.929 ns    (17.5 %), step = 77.03 ps     (700 m%)
    tran: time = 2.48 ns     (22.5 %), step = 208.7 ps      (1.9 %)

Notice from spectre at time = 3.13997 ns during transient analysis `tran'.
    Found trapezoidal ringing on node mn2.n1.

    tran: time = 3.14 ns     (28.5 %), step = 220 ps          (2 %)

Notice from spectre at time = 3.35997 ns during transient analysis `tran'.
    Found trapezoidal ringing on node mn2.n1.
Notice from spectre at time = 3.57997 ns during transient analysis `tran'.
    Found trapezoidal ringing on node mn2.n1.

    tran: time = 3.58 ns     (32.5 %), step = 220 ps          (2 %)

Notice from spectre at time = 3.79997 ns during transient analysis `tran'.
    Found trapezoidal ringing on node mn2.n1.
Notice from spectre at time = 4.01997 ns during transient analysis `tran'.
    Found trapezoidal ringing on node mn2.n1.
        Further occurrences of this notice will be suppressed.

    tran: time = 4.24 ns     (38.5 %), step = 220 ps          (2 %)
    tran: time = 4.68 ns     (42.5 %), step = 220 ps          (2 %)
    tran: time = 5.34 ns     (48.5 %), step = 220 ps          (2 %)
    tran: time = 5.78 ns     (52.5 %), step = 220 ps          (2 %)
    tran: time = 6.337 ns    (57.6 %), step = 33.75 ps     (307 m%)
    tran: time = 6.89 ns     (62.6 %), step = 19.12 ps     (174 m%)
    tran: time = 7.504 ns    (68.2 %), step = 100.9 ps     (917 m%)
    tran: time = 8.095 ns    (73.6 %), step = 173.1 ps     (1.57 %)
    tran: time = 8.535 ns    (77.6 %), step = 220 ps          (2 %)
    tran: time = 9.195 ns    (83.6 %), step = 220 ps          (2 %)
    tran: time = 9.635 ns    (87.6 %), step = 220 ps          (2 %)
    tran: time = 10.29 ns    (93.6 %), step = 220 ps          (2 %)
    tran: time = 10.73 ns    (97.6 %), step = 220 ps          (2 %)
Number of accepted tran steps =             165

Notice from spectre during transient analysis `tran'.
    Trapezoidal ringing is detected during tran analysis.
        Please use method=trap for better results and performance.


Maximum value achieved for any signal of each quantity: 
V: V(n1) = 1.004 V
I: I(_vVDD:p) = 756.6 uA
If your circuit contains signals of the same quantity that are vastly different in size (such as high voltage circuitry combined with low voltage control circuitry), you should consider specifying global option `bin_relref=yes'.

~~~~~~~~~~~~~~~~~~~~~~~~~~~~~~~~~
Post-Transient Simulation Summary
~~~~~~~~~~~~~~~~~~~~~~~~~~~~~~~~~
   -   To further speed up simulation, consider
          add ++aps on command line
~~~~~~~~~~~~~~~~~~~~~~~~~~~~~~~~~


During simulation, the CPU load for active processors is :
         0 (6.1 %)       1 (18.1 %)      2 (6.1 %)       3 (12.7 %)
         4 (4.9 %)       5 (6.6 %)       6 (12.6 %)      7 (8.2 %)
         8 (9.3 %)       9 (6.6 %)      10 (5.4 %)      11 (14.8 %)
        12 (6.5 %)      13 (4.9 %)      14 (9.3 %)      15 (12.1 %)
        16 (7.7 %)      17 (24.6 %)     18 (7.7 %)      19 (13.9 %)
        20 (3.8 %)      21 (4.9 %)      22 (5.5 %)      23 (11.5 %)
        24 (6.0 %)      25 (6.0 %)      26 (7.1 %)      27 (2.2 %)
        28 (15.8 %)     29 (5.5 %)      30 (11.5 %)     31 (4.4 %)
        32 (1.1 %)      33 (3.3 %)      34 (3.8 %)      35 (17.4 %)
        36 (5.5 %)      37 (2.2 %)      38 (1.1 %)      40 (1.1 %)
        42 (4.4 %)      43 (1.6 %)      44 (1.1 %)      45 (1.6 %)
        46 (2.7 %)      47 (1.1 %)      48 (18.0 %)     49 (5.5 %)
        50 (1.6 %)      51 (3.8 %)      52 (1.1 %)      54 (1.1 %)
        55 (13.7 %)     56 (1.6 %)      63 (1.1 %)      
        Total: 381.4%
Initial condition solution time: CPU = 639 us, elapsed = 640.154 us.
Intrinsic tran analysis time:    CPU = 18.716 ms, elapsed = 15.7881 ms.
Total time required for tran analysis `tran': CPU = 21.523 ms, elapsed = 18.59 ms.
Time accumulated: CPU = 524.579 ms, elapsed = 2.02064 s.
Peak resident memory used = 88.6 Mbytes.


Notice from spectre.
    15 notices suppressed.

finalTimeOP: writing operating point information to rawfile.

Opening the PSF file ../psf/finalTimeOP.info ...
modelParameter: writing model parameter values to rawfile.

Opening the PSF file ../psf/modelParameter.info ...
element: writing instance parameter values to rawfile.

Opening the PSF file ../psf/element.info ...
outputParameter: writing output parameter values to rawfile.

Opening the PSF file ../psf/outputParameter.info ...
designParamVals: writing netlist parameters to rawfile.

Opening the PSFASCII file ../psf/designParamVals.info ...
primitives: writing primitives to rawfile.

Opening the PSFASCII file ../psf/primitives.info.primitives ...
subckts: writing subcircuits to rawfile.

Opening the PSFASCII file ../psf/subckts.info.subckts ...

Spectre received SIGTERM sent from PID: 11867 with UID: 1140.
Process hierarchy of PID 11867 :
    PID        COMMAND
    11867      /cadence/IC618/tools/bin/64bit/cdsServIpc -c 39195 -n 28 -r 0 -x cd /home/ananya22131/Pooja_mam_project2/OR2X8/simulation/OR2X8/spectre/schematic/netlist ; ./runSimulation 
    95553      /cadence/IC618/tools.lnx86/dfII/bin/64bit/virtuoso -ocean 
    95512      csh -c source /cadence/cshrc; ocean 
    97319      python data_gen_skew_opt.py 
    96941      bash 
    142933     /usr/libexec/gnome-terminal-server 

Error found by spectre.
    ERROR (SPECTRE-25): The simulation is stopped either by the user or the farm.


Aggregate audit (1:53:29 PM, Thur Oct 26, 2023):
Time used: CPU = 539 ms, elapsed = 12.3 s, util. = 4.39%.
Time spent in licensing: elapsed = 684 ms, percentage of total = 5.57%.
Peak memory used = 89.6 Mbytes.
Simulation started at: 1:53:16 PM, Thur Oct 26, 2023, ended at: 1:53:29 PM, Thur Oct 26, 2023, with elapsed time (wall clock): 12.3 s.
spectre completes with 1 error, 1 warning, and 12 notices.
spectre terminated prematurely due to fatal error.
