Spectre (R) Circuit Simulator
Version 19.1.0.396.isr8 64bit -- 19 Jun 2020
Simulating `input.scs' on edatools-server2 at 1:56:18 AM, Thur Oct 26, 2023 (process id: 24258).
H = mpsImport( "spectre" "ipi" "v0.0" ?session "spectre0_117931_21" )
H->sclSetResultDir( "../psf" )
H->sclRun( "all" )
H->sclEcho( "@-@" )
