
Spectre (R) Circuit Simulator
Version 19.1.0.396.isr8 64bit -- 19 Jun 2020
Copyright (C) 1989-2020 Cadence Design Systems, Inc. All rights reserved worldwide. Cadence and Spectre are registered trademarks of Cadence Design Systems, Inc. All others are the property of their respective holders.

Includes RSA BSAFE(R) Cryptographic or Security Protocol Software from RSA Security, Inc.

User: paras22167   Host: edatools-server2   HostID: 7F0100   PID: 40535
Memory  available: 3.1945 GB  physical: 134.6428 GB
Linux   : Red Hat Enterprise Linux Server release 7.9 (Maipo)
CPU Type: Intel(R) Xeon(R) Gold 6226R CPU @ 2.90GHz
        Socket: Processors [Frequency] (Hyperthreaded Processor)
        0:       0 [3445.2] ( 32 ),  1 [3279.7] ( 33 ),  2 [3246.9] ( 34 )
                 3 [2682.8] ( 35 ),  4 [3008.1] ( 36 ),  5 [3256.5] ( 37 )
                 6 [3215.9] ( 38 ),  7 [3599.7] ( 39 ),  8 [3574.0] ( 40 )
                 9 [3432.4] ( 41 ), 10 [3600.0] ( 42 ), 11 [3436.8] ( 43 )
                12 [3199.8] ( 44 ), 13 [3452.1] ( 45 ), 14 [3452.2] ( 46 )
                15 [3593.8] ( 47 )
        1:      16 [3557.6] ( 48 ), 17 [3599.9] ( 49 ), 18 [3599.9] ( 50 )
                19 [3590.0] ( 51 ), 20 [3558.4] ( 52 ), 21 [3567.3] ( 53 )
                22 [3599.9] ( 54 ), 23 [3507.3] ( 55 ), 24 [3496.0] ( 56 )
                25 [3599.9] ( 57 ), 26 [3521.1] ( 58 ), 27 [3325.0] ( 59 )
                28 [3599.9] ( 60 ), 29 [3593.0] ( 61 ), 30 [3600.2] ( 62 )
                31 [3557.4] ( 63 )
        
System load averages (1min, 5min, 15min) : 3.4 %, 3.0 %, 2.6 %
Hyperthreading is enabled
HPC is enabled


Simulating `input.scs' on edatools-server2 at 4:50:59 PM, Tue Oct 31, 2023 (process id: 40535).
Current working directory: /home/paras22167/simulation/AND3X4/spectre/schematic/netlist
Command line:
    /cadence/SPECTRE191/tools/bin/spectre -64 input.scs +escchars +log  \
        ../psf/spectre.out -format psfxl -raw ../psf +aps +lqtimeout  \
        900 -maxw 5 -maxn 5 -env ade

Loading /cadence/SPECTRE191/tools.lnx86/cmi/lib/64bit/5.0/libinfineon_sh.so ...
Loading /cadence/SPECTRE191/tools.lnx86/cmi/lib/64bit/5.0/libphilips_o_sh.so ...
Loading /cadence/SPECTRE191/tools.lnx86/cmi/lib/64bit/5.0/libphilips_sh.so ...
Loading /cadence/SPECTRE191/tools.lnx86/cmi/lib/64bit/5.0/libsparam_sh.so ...
Loading /cadence/SPECTRE191/tools.lnx86/cmi/lib/64bit/5.0/libstmodels_sh.so ...
Reading file:  /home/paras22167/simulation/AND3X4/spectre/schematic/netlist/input.scs
Reading file:  /cadence/SPECTRE191/tools.lnx86/spectre/etc/configs/spectre.cfg
Reading file:  /cadence/FOUNDRY/analog/45nm/models/spectre/gpdk045.scs
Reading file:  /cadence/FOUNDRY/analog/45nm/models/spectre/gpdk045_mos.scs
Reading file:  /cadence/FOUNDRY/analog/45nm/models/spectre/gpdk045_diode.scs
Reading file:  /cadence/FOUNDRY/analog/45nm/models/spectre/gpdk045_bipolar.scs
Reading file:  /cadence/FOUNDRY/analog/45nm/models/spectre/gpdk045_mimcap.scs
Reading file:  /cadence/FOUNDRY/analog/45nm/models/spectre/gpdk045_moscap.scs
Reading file:  /cadence/FOUNDRY/analog/45nm/models/spectre/gpdk045_resistor.scs
Reading file:  /cadence/FOUNDRY/analog/45nm/models/spectre/gpdk045_inductor.scs
Reading file:  /cadence/FOUNDRY/analog/45nm/models/spectre/gpdk045_soa.scs
Reading file:  /home/paras22167/simulation/AND3X4/spectre/schematic/netlist/_graphical_stimuli.scs
Time for NDB Parsing: CPU = 358.144 ms, elapsed = 1.1159 s.
Time accumulated: CPU = 457.211 ms, elapsed = 1.1159 s.
Peak resident memory used = 72.3 Mbytes.

Reading link:  /cadence/SPECTRE191/tools.lnx86/spectre/etc/ahdl/discipline.h
Reading file:  /cadence/SPECTRE191/tools.lnx86/spectre/etc/ahdl/disciplines.vams
Reading link:  /cadence/SPECTRE191/tools.lnx86/spectre/etc/ahdl/constants.h
Reading file:  /cadence/SPECTRE191/tools.lnx86/spectre/etc/ahdl/constants.vams
Created directory input.ahdlSimDB/ (775)
Created directory input.ahdlSimDB//bsource_2b273e.va.bsource_2b273e.ahdlcmi/ (775)
Reading file:  /home/paras22167/simulation/test1/spectre/schematic/netlist/input.ahdlSimDB/bsource_2b273e.va.bsource_2b273e.ahdlcmi/Linux-64/obj/optimize/5.0/libahdlcmi_bsource_2b273e.so
Created directory input.ahdlSimDB//bsource_2b273e.va.bsource_2b273e.ahdlcmi/Linux-64/obj/optimize/5.0 
Copying files from directory /home/paras22167/simulation/test1/spectre/schematic/netlist/input.ahdlSimDB/bsource_2b273e.va.bsource_2b273e.ahdlcmi/Linux-64/ to directory input.ahdlSimDB//bsource_2b273e.va.bsource_2b273e.ahdlcmi/Linux-64/
Finished copying files from /home/paras22167/simulation/test1/spectre/schematic/netlist/input.ahdlSimDB/bsource_2b273e.va.bsource_2b273e.ahdlcmi/Linux-64/ to input.ahdlSimDB//bsource_2b273e.va.bsource_2b273e.ahdlcmi/Linux-64/.
The simulator has reused the existing Verilog-A libraries for this simulation run. If you do not want to use these libraries, set the 'CDS_AHDL_REUSE_LIB' environment variable to 'NO' and rerun the simulation.
Existing shared object for module bsource_2b273e is up to date.
Installed compiled interface for bsource_2b273e.
Time for Elaboration: CPU = 25.599 ms, elapsed = 39.391 ms.
Time accumulated: CPU = 482.905 ms, elapsed = 1.15539 s.
Peak resident memory used = 82.1 Mbytes.


Warning from spectre during hierarchy flattening.
    WARNING (SPECTRE-17101): The value 'psf' specified for the 'checklimitdest' option will no longer be supported in future releases. Use 'spectre -h' to see other recommended values for the 'checklimitdest' option.


Time for EDB Visiting: CPU = 1.403 ms, elapsed = 1.40405 ms.
Time accumulated: CPU = 484.409 ms, elapsed = 1.15689 s.
Peak resident memory used = 83.1 Mbytes.


Notice from spectre during initial setup.
    Multithreading is disabled due to the size of the design being too small.


Global user options:
         psfversion = 1.4.0
            vabstol = 1e-06
            iabstol = 1e-12
               temp = 27
               gmin = 1e-12
             rforce = 1
           maxnotes = 5
           maxwarns = 5
             digits = 5
               cols = 80
             pivrel = 0.001
           sensfile = ../psf/sens.output
     checklimitdest = psf
               save = allpub
             reltol = 0.001
               tnom = 27
             scalem = 1
              scale = 1

Scoped user options:

Circuit inventory:
              nodes 17
              bsim4 8     
     bsource_2b273e 8     
          capacitor 1     
            vsource 5     

Analysis and control statement inventory:
               info 7     
               tran 1     

Output statements:
             .probe 0     
           .measure 0     
               save 0     


Notice from spectre during initial setup.
    1 vsources are short because their absolute value is less than or equal to 'vabsshort'.
    APS Enabled.

Time for parsing: CPU = 2.367 ms, elapsed = 3.87192 ms.
Time accumulated: CPU = 486.857 ms, elapsed = 1.16084 s.
Peak resident memory used = 84.7 Mbytes.

~~~~~~~~~~~~~~~~~~~~~~
Pre-Simulation Summary
~~~~~~~~~~~~~~~~~~~~~~
~~~~~~~~~~~~~~~~~~~~~~

*************************************************
Transient Analysis `tran': time = (0 s -> 100 ns)
*************************************************

Notice from spectre during IC analysis, during transient analysis `tran'.
    GminDC = 1 pS is large enough to noticeably affect the DC solution.
        dV(net43) = 118.611 mV
        Use the `gmin_check' option to eliminate or expand this report.

DC simulation time: CPU = 659 us, elapsed = 658.989 us.

Opening the PSFXL file ../psf/tran.tran.tran ...
Important parameter values:
    start = 0 s
    outputstart = 0 s
    stop = 100 ns
    step = 100 ps
    maxstep = 2 ns
    ic = all
    useprevic = no
    skipdc = no
    reltol = 1e-03
    abstol(V) = 1 uV
    abstol(I) = 1 pA
    temp = 27 C
    tnom = 27 C
    tempeffects = all
    errpreset = moderate
    method = traponly
    lteratio = 3.5
    relref = sigglobal
    cmin = 0 F
    gmin = 1 pS
    rabsshort = 1 mOhm


Notice from spectre during transient analysis `tran'.
    Multithreading is disabled due to the size of the design being too small.


Output and IC/nodeset summary:
                 save   4       (current)
                 save   16      (voltage)

    tran: time = 2.5 ns       (2.5 %), step = 541.8 ps     (542 m%)

Notice from spectre at time = 2.55354 ns during transient analysis `tran'.
    Found trapezoidal ringing on node mp0.n1.
Notice from spectre at time = 2.58199 ns during transient analysis `tran'.
    Found trapezoidal ringing on node mp0.n1.
Notice from spectre at time = 2.5833 ns during transient analysis `tran'.
    Found trapezoidal ringing on node mp0.n1.

    tran: time = 7.5 ns       (7.5 %), step = 397.1 ps     (397 m%)

Notice from spectre at time = 7.59179 ns during transient analysis `tran'.
    Found trapezoidal ringing on node mp0.n1.
Notice from spectre at time = 7.59845 ns during transient analysis `tran'.
    Found trapezoidal ringing on node mp0.n1.
        Further occurrences of this notice will be suppressed.

    tran: time = 12.5 ns     (12.5 %), step = 699.3 ps     (699 m%)
    tran: time = 17.5 ns     (17.5 %), step = 1.164 ns     (1.16 %)
    tran: time = 22.5 ns     (22.5 %), step = 862 ps       (862 m%)
    tran: time = 27.5 ns     (27.5 %), step = 395 ps       (395 m%)
    tran: time = 32.5 ns     (32.5 %), step = 700 ps       (700 m%)
    tran: time = 37.5 ns     (37.5 %), step = 1.164 ns     (1.16 %)
    tran: time = 42.5 ns     (42.5 %), step = 862 ps       (862 m%)
    tran: time = 47.5 ns     (47.5 %), step = 395 ps       (395 m%)
    tran: time = 52.5 ns     (52.5 %), step = 781.3 fs     (781 u%)
    tran: time = 57.5 ns     (57.5 %), step = 1.164 ns     (1.16 %)
    tran: time = 62.5 ns     (62.5 %), step = 862 ps       (862 m%)
    tran: time = 67.5 ns     (67.5 %), step = 395 ps       (395 m%)
    tran: time = 72.5 ns     (72.5 %), step = 700 ps       (700 m%)
    tran: time = 77.5 ns     (77.5 %), step = 1.164 ns     (1.16 %)
    tran: time = 82.5 ns     (82.5 %), step = 862 ps       (862 m%)
    tran: time = 87.5 ns     (87.5 %), step = 395 ps       (395 m%)
    tran: time = 92.5 ns     (92.5 %), step = 700 ps       (700 m%)
    tran: time = 97.5 ns     (97.5 %), step = 1.164 ns     (1.16 %)
Number of accepted tran steps =             1616

Notice from spectre during transient analysis `tran'.
    Trapezoidal ringing is detected during tran analysis.
        Please use method=trap for better results and performance.


Maximum value achieved for any signal of each quantity: 
V: V(mp3.n1) = 1.219 V
I: I(_vVDD:p) = 463.3 uA
If your circuit contains signals of the same quantity that are vastly different in size (such as high voltage circuitry combined with low voltage control circuitry), you should consider specifying global option `bin_relref=yes'.

~~~~~~~~~~~~~~~~~~~~~~~~~~~~~~~~~
Post-Transient Simulation Summary
~~~~~~~~~~~~~~~~~~~~~~~~~~~~~~~~~
   -   To further speed up simulation, consider
          add ++aps on command line
~~~~~~~~~~~~~~~~~~~~~~~~~~~~~~~~~


During simulation, the CPU load for active processors is :
         0 (5.6 %)       1 (2.7 %)       2 (6.4 %)       3 (10.1 %)
         4 (2.8 %)       5 (4.6 %)       6 (2.8 %)       7 (2.7 %)
         8 (4.5 %)       9 (2.7 %)      10 (2.7 %)      11 (3.7 %)
        12 (1.8 %)      13 (2.8 %)      14 (11.9 %)     15 (2.7 %)
        16 (2.8 %)      17 (2.8 %)      18 (7.4 %)      19 (11.9 %)
        20 (3.7 %)      21 (4.5 %)      22 (13.8 %)     23 (5.5 %)
        24 (7.3 %)      25 (3.7 %)      26 (3.7 %)      27 (8.2 %)
        28 (2.7 %)      29 (2.7 %)      30 (2.8 %)      31 (3.6 %)
        32 (6.4 %)      33 (25.0 %)     34 (6.4 %)      35 (2.7 %)
        36 (35.8 %)     37 (2.7 %)      38 (2.7 %)      39 (1.8 %)
        40 (2.7 %)      41 (1.8 %)      42 (3.6 %)      44 (1.8 %)
        45 (2.7 %)      46 (2.7 %)      47 (2.8 %)      48 (1.8 %)
        49 (31.4 %)     50 (12.0 %)     51 (2.8 %)      52 (7.3 %)
        53 (11.0 %)     54 (2.7 %)      55 (2.7 %)      56 (2.7 %)
        57 (1.8 %)      58 (5.5 %)      59 (2.8 %)      60 (1.8 %)
        61 (1.8 %)      62 (2.7 %)      63 (1.8 %)      
        Total: 352.8%
Initial condition solution time: CPU = 700 us, elapsed = 699.043 us.
Intrinsic tran analysis time:    CPU = 117.448 ms, elapsed = 113.005 ms.
Total time required for tran analysis `tran': CPU = 119.663 ms, elapsed = 115.217 ms.
Time accumulated: CPU = 612.491 ms, elapsed = 1.28224 s.
Peak resident memory used = 88.9 Mbytes.


Notice from spectre.
    125 notices suppressed.

finalTimeOP: writing operating point information to rawfile.

Opening the PSF file ../psf/finalTimeOP.info ...
modelParameter: writing model parameter values to rawfile.

Opening the PSF file ../psf/modelParameter.info ...
element: writing instance parameter values to rawfile.

Opening the PSF file ../psf/element.info ...
outputParameter: writing output parameter values to rawfile.

Opening the PSF file ../psf/outputParameter.info ...
designParamVals: writing netlist parameters to rawfile.

Opening the PSFASCII file ../psf/designParamVals.info ...
primitives: writing primitives to rawfile.

Opening the PSFASCII file ../psf/primitives.info.primitives ...
subckts: writing subcircuits to rawfile.

Opening the PSFASCII file ../psf/subckts.info.subckts ...

Aggregate audit (4:51:00 PM, Tue Oct 31, 2023):
Time used: CPU = 646 ms, elapsed = 1.32 s, util. = 48.9%.
Time spent in licensing: elapsed = 596 ms, percentage of total = 45.1%.
Peak memory used = 89.8 Mbytes.
Simulation started at: 4:50:59 PM, Tue Oct 31, 2023, ended at: 4:51:00 PM, Tue Oct 31, 2023, with elapsed time (wall clock): 1.32 s.
spectre completes with 0 errors, 1 warning, and 13 notices.
