
Spectre (R) Circuit Simulator
Version 19.1.0.396.isr8 64bit -- 19 Jun 2020
Copyright (C) 1989-2020 Cadence Design Systems, Inc. All rights reserved worldwide. Cadence and Spectre are registered trademarks of Cadence Design Systems, Inc. All others are the property of their respective holders.

Includes RSA BSAFE(R) Cryptographic or Security Protocol Software from RSA Security, Inc.

User: ananya22131   Host: edatools-server2   HostID: 7F0100   PID: 60457
Memory  available: 2.3830 GB  physical: 134.6428 GB
Linux   : Red Hat Enterprise Linux Server release 7.9 (Maipo)
CPU Type: Intel(R) Xeon(R) Gold 6226R CPU @ 2.90GHz
        Socket: Processors [Frequency] (Hyperthreaded Processor)
        0:       0 [3426.8] ( 32 ),  1 [3599.9] ( 33 ),  2 [3599.9] ( 34 )
                 3 [3599.9] ( 35 ),  4 [3600.0] ( 36 ),  5 [3600.0] ( 37 )
                 6 [3463.9] ( 38 ),  7 [3599.9] ( 39 ),  8 [3424.1] ( 40 )
                 9 [3505.3] ( 41 ), 10 [3600.0] ( 42 ), 11 [3567.1] ( 43 )
                12 [3599.9] ( 44 ), 13 [3599.9] ( 45 ), 14 [3592.3] ( 46 )
                15 [3449.8] ( 47 )
        1:      16 [3106.0] ( 48 ), 17 [3599.9] ( 49 ), 18 [3562.9] ( 50 )
                19 [3497.6] ( 51 ), 20 [3537.9] ( 52 ), 21 [3600.0] ( 53 )
                22 [3599.7] ( 54 ), 23 [3454.2] ( 55 ), 24 [3368.2] ( 56 )
                25 [3597.6] ( 57 ), 26 [3131.3] ( 58 ), 27 [3303.0] ( 59 )
                28 [3114.2] ( 60 ), 29 [3119.1] ( 61 ), 30 [3115.6] ( 62 )
                31 [3124.4] ( 63 )
        
System load averages (1min, 5min, 15min) : 3.6 %, 4.1 %, 4.6 %
Hyperthreading is enabled
HPC is enabled


Simulating `input.scs' on edatools-server2 at 1:58:41 AM, Thur Oct 26, 2023 (process id: 60457).
Current working directory: /home/ananya22131/Pooja_mam_project2/AND2XL/simulation/AND2XL/spectre/schematic/netlist
Command line:
    /cadence/SPECTRE191/tools/bin/spectre -64 input.scs +escchars +log  \
        ../psf/spectre.out +inter=mpsc +mpssession=spectre0_14697_13  \
        -format psfxl -raw ../psf +aps +lqtimeout 900 -maxw 5 -maxn 5  \
        -env ade
spectre pid = 60457

Loading /cadence/SPECTRE191/tools.lnx86/cmi/lib/64bit/5.0/libinfineon_sh.so ...
Loading /cadence/SPECTRE191/tools.lnx86/cmi/lib/64bit/5.0/libphilips_o_sh.so ...
Loading /cadence/SPECTRE191/tools.lnx86/cmi/lib/64bit/5.0/libphilips_sh.so ...
Loading /cadence/SPECTRE191/tools.lnx86/cmi/lib/64bit/5.0/libsparam_sh.so ...
Loading /cadence/SPECTRE191/tools.lnx86/cmi/lib/64bit/5.0/libstmodels_sh.so ...
Reading file:  /home/ananya22131/Pooja_mam_project2/AND2XL/simulation/AND2XL/spectre/schematic/netlist/input.scs
Reading file:  /cadence/SPECTRE191/tools.lnx86/spectre/etc/configs/spectre.cfg
Reading file:  /cadence/FOUNDRY/analog/45nm/models/spectre/gpdk045.scs
Reading file:  /cadence/FOUNDRY/analog/45nm/models/spectre/gpdk045_mos.scs
Reading file:  /cadence/FOUNDRY/analog/45nm/models/spectre/gpdk045_diode.scs
Reading file:  /cadence/FOUNDRY/analog/45nm/models/spectre/gpdk045_bipolar.scs
Reading file:  /cadence/FOUNDRY/analog/45nm/models/spectre/gpdk045_mimcap.scs
Reading file:  /cadence/FOUNDRY/analog/45nm/models/spectre/gpdk045_moscap.scs
Reading file:  /cadence/FOUNDRY/analog/45nm/models/spectre/gpdk045_resistor.scs
Reading file:  /cadence/FOUNDRY/analog/45nm/models/spectre/gpdk045_inductor.scs
Reading file:  /cadence/FOUNDRY/analog/45nm/models/spectre/gpdk045_soa.scs
Reading file:  /home/ananya22131/Pooja_mam_project2/AND2XL/simulation/AND2XL/spectre/schematic/netlist/_graphical_stimuli_1.scs
Time for NDB Parsing: CPU = 366.09 ms, elapsed = 1.23507 s.
Time accumulated: CPU = 457.398 ms, elapsed = 1.23507 s.
Peak resident memory used = 72.3 Mbytes.

Reading link:  /cadence/SPECTRE191/tools.lnx86/spectre/etc/ahdl/discipline.h
Reading file:  /cadence/SPECTRE191/tools.lnx86/spectre/etc/ahdl/disciplines.vams
Reading link:  /cadence/SPECTRE191/tools.lnx86/spectre/etc/ahdl/constants.h
Reading file:  /cadence/SPECTRE191/tools.lnx86/spectre/etc/ahdl/constants.vams
Existing shared object for module bsource_2b273e is up to date.
Installed compiled interface for bsource_2b273e.
Time for Elaboration: CPU = 22.757 ms, elapsed = 22.759 ms.
Time accumulated: CPU = 480.259 ms, elapsed = 1.25794 s.
Peak resident memory used = 81.8 Mbytes.


Warning from spectre during hierarchy flattening.
    WARNING (SPECTRE-17101): The value 'psf' specified for the 'checklimitdest' option will no longer be supported in future releases. Use 'spectre -h' to see other recommended values for the 'checklimitdest' option.


Time for EDB Visiting: CPU = 1.097 ms, elapsed = 1.09816 ms.
Time accumulated: CPU = 481.452 ms, elapsed = 1.25913 s.
Peak resident memory used = 82.8 Mbytes.


Notice from spectre during initial setup.
    Multithreading is disabled due to the size of the design being too small.


Global user options:
         psfversion = 1.4.0
            vabstol = 1e-06
            iabstol = 1e-12
               temp = 25
               gmin = 1e-12
             rforce = 1
           maxnotes = 5
           maxwarns = 5
             digits = 5
               cols = 80
             pivrel = 0.001
           sensfile = ../psf/sens.output
     checklimitdest = psf
               save = allpub
           currents = all
             reltol = 0.001
               tnom = 27
             scalem = 1
              scale = 1

Scoped user options:

Circuit inventory:
              nodes 13
              bsim4 6     
     bsource_2b273e 6     
          capacitor 1     
            vsource 4     

Analysis and control statement inventory:
               info 7     
               tran 1     

Output statements:
             .probe 0     
           .measure 0     
               save 0     


Notice from spectre during initial setup.
    1 vsources are short because their absolute value is less than or equal to 'vabsshort'.
    APS Enabled.

Time for parsing: CPU = 2.731 ms, elapsed = 3.685 ms.
Time accumulated: CPU = 484.264 ms, elapsed = 1.26289 s.
Peak resident memory used = 84.4 Mbytes.

~~~~~~~~~~~~~~~~~~~~~~
Pre-Simulation Summary
~~~~~~~~~~~~~~~~~~~~~~
~~~~~~~~~~~~~~~~~~~~~~
Entering remote command mode using MPSC service (spectre, ipi, v0.0, spectre0_14697_13, ).

************************************************
Transient Analysis `tran': time = (0 s -> 11 ns)
************************************************
Trying `homotopy = gmin' for initial conditions.

Notice from spectre during IC analysis, during transient analysis `tran'.
    GminDC = 1 pS is large enough to noticeably affect the DC solution.
        dV(net23) = 55.0831 mV
        Use the `gmin_check' option to eliminate or expand this report.

DC simulation time: CPU = 2.927 ms, elapsed = 2.92897 ms.

Opening the PSFXL file ../psf/tran.tran.tran ...
Important parameter values:
    start = 0 s
    outputstart = 0 s
    stop = 11 ns
    step = 100 ps
    maxstep = 220 ps
    ic = all
    useprevic = no
    skipdc = no
    reltol = 1e-03
    abstol(V) = 1 uV
    abstol(I) = 1 pA
    temp = 25 C
    tnom = 27 C
    tempeffects = all
    errpreset = moderate
    method = traponly
    lteratio = 3.5
    relref = sigglobal
    cmin = 0 F
    gmin = 1 pS
    rabsshort = 1 mOhm


Notice from spectre during transient analysis `tran'.
    Multithreading is disabled due to the size of the design being too small.


Output and IC/nodeset summary:
                 save   40      (current)
                 save   12      (voltage)

    tran: time = 300 ps      (2.73 %), step = 200 ps       (1.82 %)
    tran: time = 870 ps      (7.91 %), step = 130 ps       (1.18 %)
    tran: time = 1.378 ns    (12.5 %), step = 33.52 ps     (305 m%)
    tran: time = 1.998 ns    (18.2 %), step = 205.1 ps     (1.86 %)
    tran: time = 2.658 ns    (24.2 %), step = 220 ps          (2 %)
    tran: time = 3.098 ns    (28.2 %), step = 220 ps          (2 %)
    tran: time = 3.758 ns    (34.2 %), step = 220 ps          (2 %)
    tran: time = 4.198 ns    (38.2 %), step = 220 ps          (2 %)
    tran: time = 4.858 ns    (44.2 %), step = 220 ps          (2 %)
    tran: time = 5.298 ns    (48.2 %), step = 220 ps          (2 %)
    tran: time = 5.958 ns    (54.2 %), step = 220 ps          (2 %)
    tran: time = 6.347 ns    (57.7 %), step = 29.79 ps     (271 m%)
    tran: time = 6.876 ns    (62.5 %), step = 19.04 ps     (173 m%)
    tran: time = 7.45 ns     (67.7 %), step = 220 ps          (2 %)
    tran: time = 8.11 ns     (73.7 %), step = 220 ps          (2 %)
    tran: time = 8.55 ns     (77.7 %), step = 220 ps          (2 %)
    tran: time = 9.21 ns     (83.7 %), step = 220 ps          (2 %)
    tran: time = 9.65 ns     (87.7 %), step = 220 ps          (2 %)
    tran: time = 10.31 ns    (93.7 %), step = 220 ps          (2 %)
    tran: time = 10.75 ns    (97.7 %), step = 220 ps          (2 %)
Number of accepted tran steps =             160

Maximum value achieved for any signal of each quantity: 
V: V(net24) = 1.008 V
I: I(_vVDD:p) = 57.68 uA
If your circuit contains signals of the same quantity that are vastly different in size (such as high voltage circuitry combined with low voltage control circuitry), you should consider specifying global option `bin_relref=yes'.

~~~~~~~~~~~~~~~~~~~~~~~~~~~~~~~~~
Post-Transient Simulation Summary
~~~~~~~~~~~~~~~~~~~~~~~~~~~~~~~~~
   -   To further speed up simulation, consider
          add ++aps on command line
~~~~~~~~~~~~~~~~~~~~~~~~~~~~~~~~~


During simulation, the CPU load for active processors is :
         0 (6.2 %)       1 (5.5 %)       2 (12.8 %)      3 (34.1 %)
         4 (8.9 %)       5 (10.4 %)      6 (5.6 %)       7 (8.9 %)
         8 (27.2 %)      9 (9.4 %)      10 (45.1 %)     11 (5.5 %)
        12 (6.7 %)      13 (8.8 %)      14 (6.1 %)      15 (7.2 %)
        16 (22.0 %)     17 (9.9 %)      18 (8.8 %)      19 (10.0 %)
        20 (5.5 %)      21 (5.0 %)      22 (7.2 %)      23 (6.0 %)
        24 (7.7 %)      25 (9.3 %)      26 (4.9 %)      27 (11.5 %)
        28 (6.0 %)      29 (5.0 %)      30 (7.1 %)      31 (5.0 %)
        32 (1.6 %)      33 (24.4 %)     34 (6.1 %)      35 (5.0 %)
        36 (6.1 %)      37 (4.4 %)      38 (3.3 %)      39 (2.8 %)
        40 (2.2 %)      41 (1.1 %)      42 (2.7 %)      43 (4.9 %)
        44 (2.2 %)      45 (2.7 %)      46 (1.6 %)      47 (1.7 %)
        48 (1.1 %)      49 (14.5 %)     50 (16.1 %)     51 (12.2 %)
        52 (10.5 %)     53 (6.1 %)      54 (9.9 %)      55 (5.5 %)
        56 (3.9 %)      57 (2.8 %)      58 (8.2 %)      59 (1.1 %)
        60 (3.8 %)      61 (4.9 %)      62 (1.1 %)      63 (2.8 %)
        Total: 517.0%
Initial condition solution time: CPU = 2.971 ms, elapsed = 2.97093 ms.
Intrinsic tran analysis time:    CPU = 21.899 ms, elapsed = 16.5091 ms.
Total time required for tran analysis `tran': CPU = 27.001 ms, elapsed = 21.6072 ms.
Time accumulated: CPU = 518.186 ms, elapsed = 2.02346 s.
Peak resident memory used = 88.5 Mbytes.

finalTimeOP: writing operating point information to rawfile.

Opening the PSF file ../psf/finalTimeOP.info ...
modelParameter: writing model parameter values to rawfile.

Opening the PSF file ../psf/modelParameter.info ...
element: writing instance parameter values to rawfile.

Opening the PSF file ../psf/element.info ...
outputParameter: writing output parameter values to rawfile.

Opening the PSF file ../psf/outputParameter.info ...
designParamVals: writing netlist parameters to rawfile.

Opening the PSFASCII file ../psf/designParamVals.info ...
primitives: writing primitives to rawfile.

Opening the PSFASCII file ../psf/primitives.info.primitives ...
subckts: writing subcircuits to rawfile.

Opening the PSFASCII file ../psf/subckts.info.subckts ...

Spectre received SIGTERM sent from PID: 60296 with UID: 1140.
Process hierarchy of PID 60296 :
    PID        COMMAND
    60296      /cadence/IC618/tools/bin/64bit/cdsServIpc -c 34059 -n 26 -r 0 -x cd /home/ananya22131/Pooja_mam_project2/AND2XL/simulation/AND2XL/spectre/schematic/netlist ; ./runSimulation 
    14697      /cadence/IC618/tools.lnx86/dfII/bin/64bit/virtuoso -ocean 
    14653      csh -c source /cadence/cshrc; ocean 
    116133     python data_gen_skew_opt.py 
    115816     bash 
    142933     /usr/libexec/gnome-terminal-server 

Error found by spectre.
    ERROR (SPECTRE-25): The simulation is stopped either by the user or the farm.


Aggregate audit (1:58:53 AM, Thur Oct 26, 2023):
Time used: CPU = 532 ms, elapsed = 12 s, util. = 4.45%.
Time spent in licensing: elapsed = 687 ms, percentage of total = 5.75%.
Peak memory used = 89.5 Mbytes.
Simulation started at: 1:58:41 AM, Thur Oct 26, 2023, ended at: 1:58:53 AM, Thur Oct 26, 2023, with elapsed time (wall clock): 12 s.
spectre completes with 1 error, 1 warning, and 6 notices.
spectre terminated prematurely due to fatal error.
