
Spectre (R) Circuit Simulator
Version 19.1.0.396.isr8 64bit -- 19 Jun 2020
Copyright (C) 1989-2020 Cadence Design Systems, Inc. All rights reserved worldwide. Cadence and Spectre are registered trademarks of Cadence Design Systems, Inc. All others are the property of their respective holders.

Includes RSA BSAFE(R) Cryptographic or Security Protocol Software from RSA Security, Inc.

User: poojabe   Host: edatools-server2   HostID: 7F0100   PID: 130830
Memory  available: 411.6602 MB  physical: 134.6428 GB
Linux   : Red Hat Enterprise Linux Server release 7.9 (Maipo)
CPU Type: Intel(R) Xeon(R) Gold 6226R CPU @ 2.90GHz
All processors running at 3599.9 MHz
        Socket: Processors (Hyperthreaded Processor)
        0:       0 ( 32 ),  1 ( 33 ),  2 ( 34 ),  3 ( 35 ),  4 ( 36 )
                 5 ( 37 ),  6 ( 38 ),  7 ( 39 ),  8 ( 40 ),  9 ( 41 )
                10 ( 42 ), 11 ( 43 ), 12 ( 44 ), 13 ( 45 ), 14 ( 46 )
                15 ( 47 )
        1:      16 ( 48 ), 17 ( 49 ), 18 ( 50 ), 19 ( 51 ), 20 ( 52 )
                21 ( 53 ), 22 ( 54 ), 23 ( 55 ), 24 ( 56 ), 25 ( 57 )
                26 ( 58 ), 27 ( 59 ), 28 ( 60 ), 29 ( 61 ), 30 ( 62 )
                31 ( 63 )
        
System load averages (1min, 5min, 15min) : 16.1 %, 13.3 %, 13.6 %
Hyperthreading is enabled
HPC is enabled


Simulating `input.scs' on edatools-server2 at 2:24:53 PM, Thur Oct 19, 2023 (process id: 130830).
Current working directory: /home/poojabe/Desktop/PhD_Research/src_project/ml_lib_char/gates/OR3X1/simulation/OR3X1/spectre/schematic/netlist
Command line:
    /cadence/SPECTRE191/tools/bin/spectre -64 input.scs +escchars +log  \
        ../psf/spectre.out +inter=mpsc +mpssession=spectre0_119288_224  \
        -format psfxl -raw ../psf +aps +lqtimeout 900 -maxw 5 -maxn 5  \
        -env ade
spectre pid = 130830

Loading /cadence/SPECTRE191/tools.lnx86/cmi/lib/64bit/5.0/libinfineon_sh.so ...
Loading /cadence/SPECTRE191/tools.lnx86/cmi/lib/64bit/5.0/libphilips_o_sh.so ...
Loading /cadence/SPECTRE191/tools.lnx86/cmi/lib/64bit/5.0/libphilips_sh.so ...
Loading /cadence/SPECTRE191/tools.lnx86/cmi/lib/64bit/5.0/libsparam_sh.so ...
Loading /cadence/SPECTRE191/tools.lnx86/cmi/lib/64bit/5.0/libstmodels_sh.so ...
Reading file:  /home/poojabe/Desktop/PhD_Research/src_project/ml_lib_char/gates/OR3X1/simulation/OR3X1/spectre/schematic/netlist/input.scs
Reading file:  /cadence/SPECTRE191/tools.lnx86/spectre/etc/configs/spectre.cfg
Reading file:  /cadence/FOUNDRY/analog/45nm/models/spectre/gpdk045.scs
Reading file:  /cadence/FOUNDRY/analog/45nm/models/spectre/gpdk045_mos.scs
Reading file:  /cadence/FOUNDRY/analog/45nm/models/spectre/gpdk045_diode.scs
Reading file:  /cadence/FOUNDRY/analog/45nm/models/spectre/gpdk045_bipolar.scs
Reading file:  /cadence/FOUNDRY/analog/45nm/models/spectre/gpdk045_mimcap.scs
Reading file:  /cadence/FOUNDRY/analog/45nm/models/spectre/gpdk045_moscap.scs
Reading file:  /cadence/FOUNDRY/analog/45nm/models/spectre/gpdk045_resistor.scs
Reading file:  /cadence/FOUNDRY/analog/45nm/models/spectre/gpdk045_inductor.scs
Reading file:  /cadence/FOUNDRY/analog/45nm/models/spectre/gpdk045_soa.scs
Reading file:  /home/poojabe/Desktop/PhD_Research/src_project/ml_lib_char/gates/OR3X1/simulation/OR3X1/spectre/schematic/netlist/_graphical_stimuli_1.scs
Time for NDB Parsing: CPU = 2.04213 s, elapsed = 19.9294 s.
Time accumulated: CPU = 2.14273 s, elapsed = 19.9295 s.
Peak resident memory used = 72.2 Mbytes.

Reading link:  /cadence/SPECTRE191/tools.lnx86/spectre/etc/ahdl/discipline.h
Reading file:  /cadence/SPECTRE191/tools.lnx86/spectre/etc/ahdl/disciplines.vams
Reading link:  /cadence/SPECTRE191/tools.lnx86/spectre/etc/ahdl/constants.h
Reading file:  /cadence/SPECTRE191/tools.lnx86/spectre/etc/ahdl/constants.vams
Existing shared object for module bsource_2b273e is up to date.
Installed compiled interface for bsource_2b273e.
Time for Elaboration: CPU = 27.095 ms, elapsed = 36.1528 ms.
Time accumulated: CPU = 2.16993 s, elapsed = 19.9657 s.
Peak resident memory used = 81.9 Mbytes.


Warning from spectre during hierarchy flattening.
    WARNING (SPECTRE-17101): The value 'psf' specified for the 'checklimitdest' option will no longer be supported in future releases. Use 'spectre -h' to see other recommended values for the 'checklimitdest' option.


Time for EDB Visiting: CPU = 1.141 ms, elapsed = 1.14083 ms.
Time accumulated: CPU = 2.17118 s, elapsed = 19.967 s.
Peak resident memory used = 82.9 Mbytes.


Notice from spectre during initial setup.
    Multithreading is disabled due to the size of the design being too small.


Global user options:
         psfversion = 1.4.0
            vabstol = 1e-06
            iabstol = 1e-12
               temp = 25
               gmin = 1e-12
             rforce = 1
           maxnotes = 5
           maxwarns = 5
             digits = 5
               cols = 80
             pivrel = 0.001
           sensfile = ../psf/sens.output
     checklimitdest = psf
               save = allpub
           currents = all
             reltol = 0.001
               tnom = 27
             scalem = 1
              scale = 1

Scoped user options:

Circuit inventory:
              nodes 17
              bsim4 8     
     bsource_2b273e 8     
          capacitor 1     
            vsource 5     

Analysis and control statement inventory:
               info 7     
               tran 1     

Output statements:
             .probe 0     
           .measure 0     
               save 0     


Notice from spectre during initial setup.
    1 vsources are short because their absolute value is less than or equal to 'vabsshort'.
    APS Enabled.

Time for parsing: CPU = 3.141 ms, elapsed = 6.33192 ms.
Time accumulated: CPU = 2.1744 s, elapsed = 19.9734 s.
Peak resident memory used = 84.5 Mbytes.

~~~~~~~~~~~~~~~~~~~~~~
Pre-Simulation Summary
~~~~~~~~~~~~~~~~~~~~~~
~~~~~~~~~~~~~~~~~~~~~~
Entering remote command mode using MPSC service (spectre, ipi, v0.0, spectre0_119288_224, ).

************************************************
Transient Analysis `tran': time = (0 s -> 21 ns)
************************************************
Trying `homotopy = gmin' for initial conditions.
DC simulation time: CPU = 3.837 ms, elapsed = 3.83806 ms.

Opening the PSFXL file ../psf/tran.tran.tran ...
Important parameter values:
    start = 0 s
    outputstart = 0 s
    stop = 21 ns
    step = 100 ps
    maxstep = 420 ps
    ic = all
    useprevic = no
    skipdc = no
    reltol = 1e-03
    abstol(V) = 1 uV
    abstol(I) = 1 pA
    temp = 25 C
    tnom = 27 C
    tempeffects = all
    errpreset = moderate
    method = traponly
    lteratio = 3.5
    relref = sigglobal
    cmin = 0 F
    gmin = 1 pS
    rabsshort = 1 mOhm


Notice from spectre during transient analysis `tran'.
    Multithreading is disabled due to the size of the design being too small.


Output and IC/nodeset summary:
                 save   53      (current)
                 save   16      (voltage)

    tran: time = 700 ps      (3.33 %), step = 400 ps        (1.9 %)
    tran: time = 1.593 ns    (7.59 %), step = 95.49 ps     (455 m%)
    tran: time = 3.006 ns    (14.3 %), step = 420 ps          (2 %)
    tran: time = 3.846 ns    (18.3 %), step = 420 ps          (2 %)
    tran: time = 5.106 ns    (24.3 %), step = 420 ps          (2 %)
    tran: time = 5.813 ns    (27.7 %), step = 286.9 ps     (1.37 %)
    tran: time = 6.957 ns    (33.1 %), step = 183.1 ps     (872 m%)
    tran: time = 8.164 ns    (38.9 %), step = 420 ps          (2 %)
    tran: time = 9.004 ns    (42.9 %), step = 420 ps          (2 %)
    tran: time = 10.26 ns    (48.9 %), step = 420 ps          (2 %)
    tran: time = 11.04 ns    (52.6 %), step = 16.12 ps    (76.8 m%)
    tran: time = 12.14 ns    (57.8 %), step = 369.7 ps     (1.76 %)
    tran: time = 13.4 ns     (63.8 %), step = 420 ps          (2 %)
    tran: time = 14.24 ns    (67.8 %), step = 420 ps          (2 %)
    tran: time = 15.5 ns     (73.8 %), step = 420 ps          (2 %)
    tran: time = 16.29 ns    (77.6 %), step = 25.8 ps      (123 m%)
    tran: time = 17.74 ns    (84.5 %), step = 420 ps          (2 %)
    tran: time = 18.58 ns    (88.5 %), step = 420 ps          (2 %)
    tran: time = 19.84 ns    (94.5 %), step = 420 ps          (2 %)
    tran: time = 20.68 ns    (98.5 %), step = 420 ps          (2 %)
Number of accepted tran steps =             328

Maximum value achieved for any signal of each quantity: 
V: V(net3) = 1.297 V
I: I(_vVDD:p) = 161.5 uA
If your circuit contains signals of the same quantity that are vastly different in size (such as high voltage circuitry combined with low voltage control circuitry), you should consider specifying global option `bin_relref=yes'.

~~~~~~~~~~~~~~~~~~~~~~~~~~~~~~~~~
Post-Transient Simulation Summary
~~~~~~~~~~~~~~~~~~~~~~~~~~~~~~~~~
   -   To further speed up simulation, consider
          add ++aps on command line
~~~~~~~~~~~~~~~~~~~~~~~~~~~~~~~~~


During simulation, the CPU load for active processors is :
         0 (4.2 %)       1 (5.1 %)       2 (3.7 %)       3 (17.4 %)
         4 (6.0 %)       5 (22.0 %)      6 (5.1 %)       7 (3.2 %)
         8 (100.0 %)     9 (3.3 %)      10 (3.3 %)      11 (3.7 %)
        12 (3.7 %)      13 (14.8 %)     14 (10.2 %)     15 (3.2 %)
        16 (8.8 %)      17 (5.1 %)      18 (23.3 %)     19 (15.8 %)
        20 (34.6 %)     21 (11.6 %)     22 (25.9 %)     23 (57.7 %)
        24 (6.5 %)      25 (24.9 %)     26 (17.1 %)     27 (7.9 %)
        28 (7.5 %)      29 (4.2 %)      30 (9.8 %)      31 (6.5 %)
        33 (4.5 %)      34 (17.0 %)     35 (7.6 %)      36 (1.9 %)
        38 (12.6 %)     42 (1.4 %)      46 (1.9 %)      49 (23.1 %)
        50 (6.6 %)      51 (1.9 %)      52 (6.0 %)      53 (5.1 %)
        54 (6.6 %)      55 (5.1 %)      56 (1.9 %)      57 (1.4 %)
        Total: 591.5%
Initial condition solution time: CPU = 3.886 ms, elapsed = 3.88598 ms.
Intrinsic tran analysis time:    CPU = 40.311 ms, elapsed = 35.501 ms.
Total time required for tran analysis `tran': CPU = 46.157 ms, elapsed = 41.3449 ms.
Time accumulated: CPU = 2.22788 s, elapsed = 20.9927 s.
Peak resident memory used = 89 Mbytes.

finalTimeOP: writing operating point information to rawfile.

Opening the PSF file ../psf/finalTimeOP.info ...
modelParameter: writing model parameter values to rawfile.

Opening the PSF file ../psf/modelParameter.info ...
element: writing instance parameter values to rawfile.

Opening the PSF file ../psf/element.info ...
outputParameter: writing output parameter values to rawfile.

Opening the PSF file ../psf/outputParameter.info ...
designParamVals: writing netlist parameters to rawfile.

Opening the PSFASCII file ../psf/designParamVals.info ...
primitives: writing primitives to rawfile.

Opening the PSFASCII file ../psf/primitives.info.primitives ...
subckts: writing subcircuits to rawfile.

Opening the PSFASCII file ../psf/subckts.info.subckts ...

Spectre received SIGTERM sent from PID: 130683 with UID: 1111.
Process hierarchy of PID 130683 :
    PID        COMMAND
    130683     /cadence/IC618/tools/bin/64bit/cdsServIpc -c 35207 -n 237 -r 0 -x cd /home/poojabe/Desktop/PhD_Research/src_project/ml_lib_char/gates/OR3X1/simulation/OR3X1/spectre/schematic/netlist ; ./runSimulation 
    119288     /cadence/IC618/tools.lnx86/dfII/bin/64bit/virtuoso -ocean 
    119275     csh -c source /cadence/cshrc; ocean 
    173880     python simulation.py 
    173697     python simulation.py 
    173418     bash 
    84866      /usr/libexec/gnome-terminal-server 

Error found by spectre.
    ERROR (SPECTRE-25): The simulation is stopped either by the user or the farm.


Aggregate audit (2:25:25 PM, Thur Oct 19, 2023):
Time used: CPU = 2.24 s, elapsed = 31.9 s, util. = 7.03%.
Time spent in licensing: elapsed = 714 ms.
Peak memory used = 89.7 Mbytes.
Simulation started at: 2:24:53 PM, Thur Oct 19, 2023, ended at: 2:25:25 PM, Thur Oct 19, 2023, with elapsed time (wall clock): 31.9 s.
spectre completes with 1 error, 1 warning, and 5 notices.
spectre terminated prematurely due to fatal error.
